#calf20_pbe-d3bj_DDEC6
_chemical_name_common                    'calf20_pbe-d3bj'
_cell_length_a                           18.11241
_cell_length_b                           19.68336
_cell_length_c                           19.18501
_cell_angle_alpha                        90.00004
_cell_angle_beta                         116.10190
_cell_angle_gamma                        90.00001

_symmetry_cell_setting          triclinic
_symmetry_space_group_name_Hall 'P 1'
_symmetry_space_group_name_H-M  'P 1'
_symmetry_Int_Tables_number     1

_symmetry_equiv_pos_as_xyz 'x,y,z'

loop_
   _atom_site_label
   _atom_site_type_symbol
   _atom_site_fract_x
   _atom_site_fract_y
   _atom_site_fract_z
   _atom_site_charge
  Zn1  Zn 0.4588556436386185  0.0282282402488652  0.2182094610436829  0.7011220000000000
  Zn2  Zn 0.2828377764545904  0.2782440186541380  0.0314809721225185  0.7012820000000000
  Zn3  Zn 0.2828377088438667  0.4717558675388159  0.2814825210692785  0.7013160000000001
  Zn4  Zn 0.4588552541463211  0.2217716518506345  0.4682085507461370  0.7011930000000000
   N1   N 0.3861853141130573  0.4441497254391520  0.1839446533829230 -0.1935110000000000
   N2   N 0.3555984214022581  0.1942334324800280  0.0659058704129724 -0.1965450000000000
   N3   N 0.3555990726536426  0.0557668773649917  0.3159054947410084 -0.1966250000000000
   N4   N 0.3861849934691267  0.3058494825422897  0.4339440125314282 -0.1933830000000000
   N5   N 0.3240837125739219  0.4266793383674919  0.2035643934673320 -0.1987010000000000
   N6   N 0.4176831181392532  0.1767574059806830  0.0462678941869210 -0.1963030000000000
   N7   N 0.4176840722290528  0.0732429243292949  0.2962678705165988 -0.1961200000000000
   N8   N 0.3240835050037326  0.3233199208706011  0.4535640290732513 -0.1986110000000000
   N9   N 0.3210087003494779  0.3545715988747035  0.1125995998571655 -0.3192090000000000
  N10   N 0.4208297230467734  0.1047046748260636  0.1373089270966286 -0.3193380000000000
  N11   N 0.4208306778648593  0.1452956844243906  0.3873088499646054 -0.3194160000000000
  N12   N 0.3210094193192823  0.3954282890835871  0.3626003693293519 -0.3194190000000000
   O1   O 0.0756200951111250  0.0388831999300974  0.3050295811382023 -0.5020540000000000
   O2   O 0.1660148120701603  0.2889805888407488 -0.0553222271814877 -0.5016860000000000
   O3   O 0.1660142879220491 -0.0389812586456019  0.1946781094055116 -0.5016470000000000
   O4   O 0.0756208207332959  0.2111173007340579  0.0550299533568261 -0.5019749999999999
   O5   O 0.2092261156229199  0.0166671306556620  0.3368912266078640 -0.5065940000000000
   O6   O 0.0324252967323679  0.2666162506398462 -0.0872833368476880 -0.5064360000000000
   O7   O 0.0324244477735905 -0.0166166383806905  0.1627163036247195 -0.5064410000000000
   O8   O 0.2092273455864327  0.2333333949537081  0.0868917962650641 -0.5066180000000000
   C1   C 0.3825005905533374  0.4001949254066940  0.1294224550402016  0.1483660000000000
   C2   C 0.3593257247243790  0.1503171534861129  0.1204762350177906  0.1468030000000000
   C3   C 0.3593258212907515  0.0996832084323759  0.3704762594829120  0.1467980000000000
   C4   C 0.3825004889944716  0.3498050751208390  0.3794230083459185  0.1484980000000000
   C5   C 0.2866633042641685  0.3730084652546384  0.1599859130615497  0.1589550000000000
   C6   C 0.4551434577036145  0.1231179436753951  0.0898868956359794  0.1592730000000000
   C7   C 0.4551433586863871  0.1268820873748383  0.3398862695913234  0.1592770000000000
   C8   C 0.2866630647124401  0.3769914996349898  0.4099858769873551  0.1587920000000000
   C9   C 0.1333982726324156  0.0159449587508367  0.2905954376635005  0.4727190000000000
  C10   C 0.1082321287798809  0.2659691849115188 -0.0409355965349840  0.4722450000000000
  C11   C 0.1082329628070981 -0.0159698547133643  0.2090646459073032  0.4722310000000000
  C12   C 0.1333966162730579  0.2340548292009115  0.0405951402887766  0.4727210000000000
   H1   H 0.4245682742696807  0.4018995695594807  0.1030315755639541  0.1193090000000000
   H2   H 0.3172934772366349  0.1520362796917063  0.1469062108557196  0.1204080000000000
   H3   H 0.3172927724292594  0.0979631000615565  0.3969050751098296  0.1203910000000000
   H4   H 0.4245682061987080  0.3481009066099021  0.3530321040664031  0.1193100000000000
   H5   H 0.2346915757609122  0.3473950816173518  0.1621077618969726  0.1195730000000000
   H6   H 0.5071186075866031  0.0975064644525945  0.0877729923696649  0.1202470000000000
   H7   H 0.5071184587909708  0.1524932447065750  0.3377722266588237  0.1202230000000000
   H8   H 0.2346917184187660  0.4026049851873186  0.4121082530496725  0.1195550000000000
  Zn5  Zn 0.4588556292205747  0.0282284201731346  0.7182073937186196  0.7011220000000000
  Zn6  Zn 0.2828372346970363  0.2782439487920163  0.5314822369703007  0.7013070000000000
  Zn7  Zn 0.2828383895498304  0.4717558443115251  0.7814831236012146  0.7013110000000000
  Zn8  Zn 0.4588561307226197  0.2217718776796791  0.9682084324525709  0.7012340000000000
  N13   N 0.3861848128495036  0.4441499007386735  0.6839440125570567 -0.1935240000000000
  N14   N 0.3555986248931355  0.1942329446703626  0.5659055648210733 -0.1966330000000000
  N15   N 0.3555984324001420  0.0557666625236796  0.8159059445791353 -0.1966420000000000
  N16   N 0.3861845643253214  0.3058500076732257  0.9339440254377996 -0.1933630000000000
  N17   N 0.3240832991510348  0.4266795876863536  0.7035639461693546 -0.1987830000000000
  N18   N 0.4176835776037492  0.1767567378015976  0.5462678105294001 -0.1961290000000000
  N19   N 0.4176832517787889  0.0732424807823759  0.7962680991535797 -0.1960380000000000
  N20   N 0.3240828906071286  0.3233206628499630  0.9535638770578099 -0.1986550000000000
  N21   N 0.3210090038471078  0.3545712363831220  0.6125999805622137 -0.3191720000000000
  N22   N 0.4208302131633235  0.1047045088815710  0.6373091576979505 -0.3193040000000000
  N23   N 0.4208294421110519  0.1452955264944167  0.8873088168309790 -0.3194930000000000
  N24   N 0.3210089722577777  0.3954289107429987  0.8626002684944614 -0.3193570000000000
   O9   O 0.0756205073336630  0.0388817869688645  0.8050300237141529 -0.5021200000000000
  O10   O 0.1660147395295420  0.2889806036270740  0.4446773429692959 -0.5016500000000000
  O11   O 0.1660145008774555 -0.0389806508706512  0.6946778118603816 -0.5015570000000000
  O12   O 0.0756203633525861  0.2111187673362540  0.5550304260217558 -0.5020320000000000
  O13   O 0.2092271347270224  0.0166662659037807  0.8368918512375635 -0.5066410000000000
  O14   O 0.0324253764267168  0.2666158999289531  0.4127163104283323 -0.5064640000000000
  O15   O 0.0324248487840299 -0.0166157617911439  0.6627161758023918 -0.5064260000000000
  O16   O 0.2092267859949343  0.2333338342333904  0.5868920015573841 -0.5066000000000001
  C13   C 0.3825004049432031  0.4001947240539782  0.6294224536935247  0.1484900000000000
  C14   C 0.3593260290842038  0.1503170079678936  0.6204763343159376  0.1467800000000000
  C15   C 0.3593256684479006  0.0996828288784979  0.8704760890663270  0.1467870000000000
  C16   C 0.3825002559282528  0.3498054673466441  0.8794224799813291  0.1485270000000000
  C17   C 0.2866631632044546  0.3730083527843053  0.6599858634910449  0.1589060000000000
  C18   C 0.4551439497832914  0.1231178268054243  0.5898872214578530  0.1592470000000000
  C19   C 0.4551434907648364  0.1268821595918765  0.8398868992493207  0.1593220000000000
  C20   C 0.2866630517795071  0.3769919678465660  0.9099859331799518  0.1587410000000000
  C21   C 0.1333974106662745  0.0159444670490380  0.7905954541403618  0.4727890000000000
  C22   C 0.1082314206213335  0.2659693201864563  0.4590639372677983  0.4722330000000000
  C23   C 0.1082333075300016 -0.0159694106164612  0.7090646771403750  0.4721710000000000
  C24   C 0.1333972178251467  0.2340557322533965  0.5405955749190712  0.4727270000000000
   H9   H 0.4245682021168250  0.4018994318955495  0.6030318006140468  0.1193140000000000
  H10   H 0.3172933318306236  0.1520370586645640  0.6469053050192776  0.1203450000000000
  H11   H 0.3172934291330940  0.0979638037696873  0.8969059489158907  0.1203390000000000
  H12   H 0.4245685626110237  0.3481002100423018  0.8530325242327911  0.1193460000000000
  H13   H 0.2346917662442783  0.3473946087638957  0.6621074166344726  0.1195530000000000
  H14   H 0.5071190126052020  0.0975067852806257  0.5877734889413680  0.1202860000000000
  H15   H 0.5071185492513476  0.1524942366954252  0.8377738960820057  0.1202530000000000
  H16   H 0.2346918373769556  0.4026048358046044  0.9121087752484593  0.1194850000000000
  Zn9  Zn 0.4588553952158637  0.5282283187645200  0.2182085009886955  0.7012070000000000
 Zn10  Zn 0.2828380335238892  0.7782442149566134  0.0314824463237919  0.7012710000000000
 Zn11  Zn 0.2828370570733280  0.9717555872087995  0.2814829857200962  0.7012690000000000
 Zn12  Zn 0.4588547463356761  0.7217717095096031  0.4682081988173248  0.7011890000000000
  N25   N 0.3861854637233274  0.9441502126206684  0.1839440767928106 -0.1936270000000000
  N26   N 0.3555984237596511  0.6942330530066713  0.0659057954019192 -0.1965690000000000
  N27   N 0.3555988529819112  0.5557668823715354  0.3159060777674982 -0.1964450000000000
  N28   N 0.3861852900413911  0.8058498413167736  0.4339441699309595 -0.1933550000000000
  N29   N 0.3240837879951496  0.9266797857951876  0.2035639818881798 -0.1987390000000000
  N30   N 0.4176834633137107  0.6767571472267391  0.0462682175906566 -0.1963350000000000
  N31   N 0.4176836998865293  0.5732430924740287  0.2962682725151758 -0.1961000000000000
  N32   N 0.3240835697004910  0.8233199910924348  0.4535639100254841 -0.1985470000000000
  N33   N 0.3210096085087750  0.8545714848749578  0.1126001153119355 -0.3191520000000000
  N34   N 0.4208296590477180  0.6047044371310896  0.1373090846674997 -0.3193070000000000
  N35   N 0.4208297487238828  0.6452959008427402  0.3873090625474629 -0.3194820000000000
  N36   N 0.3210096939191570  0.8954283399233647  0.3626002302540031 -0.3194520000000000
  O17   O 0.0756195716637090  0.5388827971536572  0.3050301508006730 -0.5021870000000001
  O18   O 0.1660137734997028  0.7889812482504891 -0.0553215706066186 -0.5017250000000000
  O19   O 0.1660144413253924  0.4610197393633106  0.1946778217575722 -0.5016090000000000
  O20   O 0.0756195713893949  0.7111164249619649  0.0550297369018440 -0.5019410000000000
  O21   O 0.2092252076154442  0.5166663798476067  0.3368914807110241 -0.5066280000000000
  O22   O 0.0324236371947913  0.7666168743805151 -0.0872839812047840 -0.5064520000000000
  O23   O 0.0324244638823902  0.4833839676456826  0.1627153985465086 -0.5064390000000000
  O24   O 0.2092253449692358  0.7333325561600612  0.0868905863029485 -0.5065090000000000
  C25   C 0.3825004263473905  0.9001949760473009  0.1294225103349984  0.1484900000000000
  C26   C 0.3593254806008171  0.6503169546461195  0.1204762400388228  0.1467900000000000
  C27   C 0.3593256988132127  0.5996832341656048  0.3704764643532391  0.1467640000000000
  C28   C 0.3825006116006702  0.8498048559397621  0.3794229226270158  0.1485200000000000
  C29   C 0.2866634081914625  0.8730080241555278  0.1599859184874162  0.1589600000000000
  C30   C 0.4551434596186115  0.6231177987455353  0.0898871292650404  0.1592920000000000
  C31   C 0.4551436115664309  0.6268824759908819  0.3398872085836495  0.1592100000000000
  C32   C 0.2866630326445764  0.8769914428384334  0.4099856307288927  0.1587260000000000
  C33   C 0.1334000074117864  0.5159445266357924  0.2905962934427114  0.4728280000000000
  C34   C 0.1082349698956459  0.7659703877753837 -0.0409344477444856  0.4722400000000000
  C35   C 0.1082336249775618  0.4840305361319766  0.2090645152387830  0.4722280000000000
  C36   C 0.1334002201639089  0.7340552318919011  0.0405961479805029  0.4726480000000000
  H17   H 0.4245678443277197  0.9018992040260227  0.1030314736367687  0.1192370000000000
  H18   H 0.3172926903116164  0.6520365785988019  0.1469053180291998  0.1204010000000000
  H19   H 0.3172925290255899  0.5979629019256226  0.3969049679938847  0.1203910000000000
  H20   H 0.4245679223558891  0.8481010485023893  0.3530317094173295  0.1193100000000000
  H21   H 0.2346918042913336  0.8473950594606157  0.1621083800498349  0.1196050000000000
  H22   H 0.5071184241550825  0.5975061577209628  0.0877734473208267  0.1202900000000000
  H23   H 0.5071184271804619  0.6524934079652693  0.3377727598598602  0.1202330000000000
  H24   H 0.2346915345121897  0.9026055464752768  0.4121067924222547  0.1195060000000000
 Zn13  Zn 0.4588554783511928  0.5282280727978390  0.7182073926517352  0.7011750000000000
 Zn14  Zn 0.2828375394264447  0.7782441033208838  0.5314842196672008  0.7013570000000000
 Zn15  Zn 0.2828382102312725  0.9717558237057149  0.7814824143825463  0.7012520000000000
 Zn16  Zn 0.4588561825760301  0.7217720594086188  0.9682084832700260  0.7011940000000000
  N37   N 0.3861845214983003  0.9441502652964728  0.6839438239663326 -0.1936240000000000
  N38   N 0.3555991948785459  0.6942330226123318  0.5659059391154697 -0.1967020000000000
  N39   N 0.3555985985634312  0.5557669186400584  0.8159059301490190 -0.1964480000000000
  N40   N 0.3861848951861123  0.8058501744721465  0.9339442330960402 -0.1933110000000000
  N41   N 0.3240828151068847  0.9266796958016413  0.7035636714760890 -0.1988050000000000
  N42   N 0.4176841266867947  0.6767569380103695  0.5462682912445855 -0.1961700000000000
  N43   N 0.4176835835161758  0.5732427415870645  0.7962682268777297 -0.1960020000000000
  N44   N 0.3240829879555335  0.8233204698680799  0.9535637334969594 -0.1985720000000000
  N45   N 0.3210092943132887  0.8545712478069817  0.6126003072581140 -0.3191630000000000
  N46   N 0.4208301218138759  0.6047041994536992  0.6373090748700238 -0.3192810000000000
  N47   N 0.4208295172391192  0.6452958637847312  0.8873088627687354 -0.3195640000000000
  N48   N 0.3210089094323537  0.8954287195085792  0.8625998999449316 -0.3193870000000000
  O25   O 0.0756202397174520  0.5388824407925499  0.8050299234975498 -0.5022219999999999
  O26   O 0.1660137765595625  0.7889804044736402  0.4446774578939650 -0.5016860000000000
  O27   O 0.1660145242368335  0.4610191521750324  0.6946779206797344 -0.5015070000000000
  O28   O 0.0756193515075668  0.7111181300629245  0.5550301639918096 -0.5020320000000000
  O29   O 0.2092264304608965  0.5166667992559646  0.8368917190281042 -0.5066460000000000
  O30   O 0.0324238890006685  0.7666156033830783  0.4127153583982226 -0.5065010000000000
  O31   O 0.0324247250939764  0.4833836528831971  0.6627160475130862 -0.5064170000000000
  O32   O 0.2092250941623245  0.7333335893393023  0.5868911080337185 -0.5065140000000000
  C37   C 0.3825001199223149  0.9001947614656577  0.6294225438367758  0.1485660000000000
  C38   C 0.3593258090929525  0.6503168667491499  0.6204764184091113  0.1468080000000000
  C39   C 0.3593260203339217  0.5996831111212710  0.8704762829110436  0.1467390000000000
  C40   C 0.3825006656718941  0.8498052603175250  0.8794224031244382  0.1484640000000000
  C41   C 0.2866628697355124  0.8730081499043484  0.6599856230478782  0.1589330000000000
  C42   C 0.4551439503367056  0.6231179217753366  0.5898873005194853  0.1592630000000000
  C43   C 0.4551437317676871  0.6268825348120050  0.8398871165439823  0.1592750000000000
  C44   C 0.2866634072614358  0.8769916588531753  0.9099859911825039  0.1586480000000000
  C45   C 0.1333997449948325  0.5159444808556752  0.7905961286390705  0.4728310000000000
  C46   C 0.1082346363524012  0.7659697805780650  0.4590647841538363  0.4722240000000000
  C47   C 0.1082338259872581  0.4840301116960726  0.7090648394355987  0.4721600000000000
  C48   C 0.1334010944539603  0.7340561330519926  0.5405965370712972  0.4727140000000000
  H25   H 0.4245682319588619  0.9018996953395486  0.6030324467916840  0.1192630000000000
  H26   H 0.3172924674242694  0.6520375520727452  0.6469046100937772  0.1203340000000000
  H27   H 0.3172933509572630  0.5979636311818521  0.8969054506748496  0.1203370000000000
  H28   H 0.4245688182349298  0.8481000913482688  0.8530323770384366  0.1193950000000000
  H29   H 0.2346918465836889  0.8473947373805999  0.6621079515095342  0.1195830000000000
  H30   H 0.5071186751575364  0.5975064444041261  0.5877737226646595  0.1203320000000000
  H31   H 0.5071184779097953  0.6524942356906170  0.8377735482898960  0.1202370000000000
  H32   H 0.2346918324540468  0.9026044994178468  0.9121081869830108  0.1194760000000000
 Zn17  Zn 0.9588553403290252  0.0282287248583191  0.2182065754818790  0.7011400000000000
 Zn18  Zn 0.7828369037988933  0.2782442192758887  0.0314847055024257  0.7012990000000000
 Zn19  Zn 0.7828369743573952  0.4717554903305938  0.2814835814993357  0.7013360000000000
 Zn20  Zn 0.9588555242862524  0.2217715154576680  0.4682065473068481  0.7011650000000000
  N49   N 0.8861845278906693  0.4441496642676228  0.1839438945477014 -0.1935300000000000
  N50   N 0.8555994830540088  0.1942330847542355  0.0659063003318758 -0.1965230000000000
  N51   N 0.8555991595157915  0.0557672684664235  0.3159060365545548 -0.1966170000000000
  N52   N 0.8861842915459062  0.3058503393271048  0.4339438327440240 -0.1934040000000000
  N53   N 0.8240825361664950  0.4266793749622637  0.2035635040080670 -0.1987130000000000
  N54   N 0.9176843734821490  0.1767571040677487  0.0462684897540328 -0.1963080000000000
  N55   N 0.9176840797940130  0.0732434255329907  0.2962682065839608 -0.1961460000000000
  N56   N 0.8240827664755515  0.3233208481647837  0.4535637536439355 -0.1986170000000000
  N57   N 0.8210092474015893  0.3545709917550919  0.1126001356480231 -0.3192420000000000
  N58   N 0.9208299006126572  0.1047041666852617  0.1373088949904710 -0.3193450000000000
  N59   N 0.9208301146114316  0.1452958374047042  0.3873092318622598 -0.3193800000000000
  N60   N 0.8210089975303313  0.3954289094742411  0.3625999154799563 -0.3193750000000000
  O33   O 0.5756191248118090  0.0388848594506755  0.3050288370494045 -0.5020980000000000
  O34   O 0.6660122637049677  0.2889803688071116 -0.0553224677781949 -0.5016260000000000
  O35   O 0.6660128674608005 -0.0389822172931399  0.1946783340372435 -0.5015950000000000
  O36   O 0.5756179962382060  0.2111166063085031  0.0550298453762037 -0.5020690000000000
  O37   O 0.7092249797584937  0.0166683368966777  0.3368896968905852 -0.5066370000000000
  O38   O 0.5324221903929199  0.2666161473996365 -0.0872860755519733 -0.5064689999999999
  O39   O 0.5324231968416866 -0.0166170331478021  0.1627155735212836 -0.5064570000000000
  O40   O 0.7092233151172950  0.2333324861671942  0.0868890647461279 -0.5065290000000000
  C49   C 0.8824999193376565  0.4001942671188687  0.1294226811325803  0.1484170000000000
  C50   C 0.8593260250407294  0.1503167086969752  0.1204761831128036  0.1468340000000000
  C51   C 0.8593260999514200  0.0996835925985559  0.3704762978561878  0.1468110000000000
  C52   C 0.8825001757530013  0.3498054598569237  0.3794224426810177  0.1484340000000000
  C53   C 0.7866629396686008  0.3730078716660723  0.1599853502119585  0.1589310000000000
  C54   C 0.9551438510753522  0.1231178589459652  0.0898873556545794  0.1592210000000000
  C55   C 0.9551437277371627  0.1268823635362421  0.3398875460782730  0.1591980000000000
  C56   C 0.7866630566896102  0.3769917563699703  0.4099854366950450  0.1588140000000000
  C57   C 0.6334040965757884  0.0159441757912872  0.2905974097191598  0.4728290000000000
  C58   C 0.6082381704232238  0.2659711653101292 -0.0409336949803742  0.4722010000000000
  C59   C 0.6082376669320788 -0.0159718560277808  0.2090668425803637  0.4721920000000000
  C60   C 0.6334052522996199  0.2340567033342893  0.0405980074504846  0.4727310000000000
  H33   H 0.9245679917629414  0.4018994121297312  0.1030326716003868  0.1192750000000000
  H34   H 0.8172933042737608  0.1520371763922773  0.1469048537063706  0.1204250000000000
  H35   H 0.8172931468298327  0.0979627996474535  0.3969048536838753  0.1204150000000000
  H36   H 0.9245679606482655  0.3481002087969662  0.3530322097280821  0.1193050000000000
  H37   H 0.7346919813163496  0.3473946748419358  0.1621069452681321  0.1196220000000000
  H38   H 1.0071184655347096  0.0975066300388606  0.0877742448256523  0.1202640000000000
  H39   H 1.0071181296237921  0.1524939160500423  0.3377741983504288  0.1202590000000000
  H40   H 0.7346920263758592  0.4026050709477608  0.4121069303443589  0.1195790000000000
 Zn21  Zn 0.9588557507103271  0.0282290195607462  0.7182073670167909  0.7011060000000000
 Zn22  Zn 0.7828374901967617  0.2782446187770358  0.5314841614955520  0.7013300000000000
 Zn23  Zn 0.7828369815697642  0.4717552791863186  0.7814829557049495  0.7013270000000000
 Zn24  Zn 0.9588555343193427  0.2217713306140555  0.9682060169127451  0.7011660000000000
  N61   N 0.8861844687521022  0.4441498415614282  0.6839439194234921 -0.1935090000000000
  N62   N 0.8555987170112462  0.1942328693368475  0.5659060346832800 -0.1965670000000000
  N63   N 0.8555990119743517  0.0557671839490112  0.8159061678189863 -0.1966420000000000
  N64   N 0.8861844752871783  0.3058503198767373  0.9339440297934950 -0.1933630000000000
  N65   N 0.8240827450471786  0.4266791790130032  0.7035637046057228 -0.1987850000000000
  N66   N 0.9176836587432964  0.1767569261989231  0.5462683311661668 -0.1961890000000000
  N67   N 0.9176840971688904  0.0732432822798348  0.7962685510291189 -0.1960830000000000
  N68   N 0.8240827292748207  0.3233205336197452  0.9535637678087627 -0.1986840000000000
  N69   N 0.8210091462539886  0.3545711645701976  0.6126000586475883 -0.3192210000000000
  N70   N 0.9208297555558465  0.1047044651222062  0.6373092391781229 -0.3193300000000000
  N71   N 0.9208298066454792  0.1452958973382473  0.8873091175958413 -0.3194250000000000
  N72   N 0.8210089479750144  0.3954287033431317  0.8625999926830347 -0.3193310000000000
  O41   O 0.5756181960838281  0.0388827909209765  0.8050301806631509 -0.5022000000000000
  O42   O 0.6660124441991734  0.2889795149578664  0.4446778014612838 -0.5015750000000000
  O43   O 0.6660125363905280 -0.0389799212976438  0.6946775588327233 -0.5014720000000000
  O44   O 0.5756179998366918  0.2111173139477881  0.5550299946146741 -0.5021330000000001
  O45   O 0.7092237506454372  0.0166668854351645  0.8368892196940100 -0.5066740000000000
  O46   O 0.5324219356382621  0.2666152368023286  0.4127137091121746 -0.5064980000000000
  O47   O 0.5324223279021749 -0.0166157976231060  0.6627139104722380 -0.5064530000000000
  O48   O 0.7092237042771772  0.2333331870499342  0.5868897826963038 -0.5065750000000000
  C61   C 0.8824999822648411  0.4001944495675659  0.6294227109257610  0.1484860000000000
  C62   C 0.8593257882187242  0.1503167487291272  0.6204761411862764  0.1467800000000000
  C63   C 0.8593263197317142  0.0996833415983173  0.8704763645594134  0.1468480000000000
  C64   C 0.8825002646979866  0.3498055368708125  0.8794228100149807  0.1485060000000000
  C65   C 0.7866630680431621  0.3730077994425085  0.6599855239468949  0.1589320000000000
  C66   C 0.9551434912446496  0.1231177862545995  0.5898874476940362  0.1592450000000000
  C67   C 0.9551439685225821  0.1268827304027995  0.8398875885897822  0.1592570000000000
  C68   C 0.7866632236053888  0.3769916936008342  0.9099857016923479  0.1587500000000000
  C69   C 0.6334032778751614  0.0159432658284215  0.7905975530014754  0.4729060000000000
  C70   C 0.6082392663952614  0.2659707520840928  0.4590667716129517  0.4721710000000000
  C71   C 0.6082376103618927 -0.0159708016941017  0.7090661960630057  0.4721000000000000
  C72   C 0.6334040932004668  0.2340569615789174  0.5405979730840764  0.4728050000000000
  H41   H 0.9245678609242077  0.4018996076529811  0.6030324599600267  0.1193120000000000
  H42   H 0.8172933045225290  0.1520367437998645  0.6469052680710857  0.1203850000000000
  H43   H 0.8172935623657324  0.0979630544918953  0.8969050588588361  0.1203410000000000
  H44   H 0.9245679444269894  0.3481006560024476  0.8530322150915296  0.1193250000000000
  H45   H 0.7346920081585657  0.3473949242613006  0.6621078138122831  0.1195720000000000
  H46   H 1.0071182428118768  0.0975063515945658  0.5877742569447487  0.1202720000000000
  H47   H 1.0071187798887578  0.1524934909521722  0.8377740592624759  0.1202500000000000
  H48   H 0.7346920692793031  0.4026054698324720  0.9121068956946562  0.1195120000000000
 Zn25  Zn 0.9588557955117244  0.5282287727596978  0.2182061735937988  0.7011800000000000
 Zn26  Zn 0.7828370525429516  0.7782446263863356  0.0314845388804393  0.7012780000000000
 Zn27  Zn 0.7828372329794583  0.9717551091649974  0.2814857992936108  0.7012860000000000
 Zn28  Zn 0.9588559135826886  0.7217708787525536  0.4682080208623461  0.7011810000000001
  N73   N 0.8861847685828728  0.9441500179679287  0.1839437696450953 -0.1936370000000000
  N74   N 0.8555993132426783  0.6942329505279009  0.0659061583620000 -0.1965380000000000
  N75   N 0.8555983293596547  0.5557670786794220  0.3159055276178502 -0.1964590000000000
  N76   N 0.8861845798016584  0.8058495505733686  0.4339436441413525 -0.1933770000000000
  N77   N 0.8240832114760458  0.9266797044175002  0.2035638527711329 -0.1987810000000000
  N78   N 0.9176842844519036  0.6767568323240577  0.0462683174776910 -0.1963550000000000
  N79   N 0.9176833006242991  0.5732429372247807  0.2962678609113977 -0.1961010000000000
  N80   N 0.8240827973840650  0.8233203705782390  0.4535634696590977 -0.1985590000000000
  N81   N 0.8210098976450891  0.8545711005546964  0.1126005906472615 -0.3191780000000000
  N82   N 0.9208298796801959  0.6047039885324946  0.1373086298996101 -0.3192930000000000
  N83   N 0.9208295242158393  0.6452954184189539  0.3873089802033024 -0.3194650000000000
  N84   N 0.8210101659317803  0.8954287462781410  0.3626006601594977 -0.3194530000000000
  O49   O 0.5756190496247382  0.5388822773642941  0.3050299455967806 -0.5021220000000000
  O50   O 0.6660138459498561  0.7889806702431391 -0.0553221678558431 -0.5017460000000000
  O51   O 0.6660130814447390  0.4610204564823613  0.1946772385431673 -0.5015269999999999
  O52   O 0.5756194807197009  0.7111174602109329  0.0550301593497589 -0.5019250000000000
  O53   O 0.7092253094567583  0.5166664467295309  0.3368904705959180 -0.5066300000000000
  O54   O 0.5324243736603440  0.7666162245973903 -0.0872846438090869 -0.5064330000000000
  O55   O 0.5324233421344855  0.4833850376521557  0.1627146105224324 -0.5064240000000000
  O56   O 0.7092255692475068  0.7333328423214744  0.0868905204435374 -0.5065330000000000
  C73   C 0.8825002652962348  0.9001948301636212  0.1294227512122221  0.1484630000000000
  C74   C 0.8593261688710486  0.6503165061424374  0.1204761086295404  0.1467900000000000
  C75   C 0.8593255194595912  0.5996830758041234  0.3704757456981922  0.1467590000000000
  C76   C 0.8825003754237889  0.8498050330054016  0.3794228716720625  0.1484900000000000
  C77   C 0.7866632974235089  0.8730083321282012  0.1599856620612085  0.1590070000000000
  C78   C 0.9551436303677407  0.6231174727401885  0.0898870117731948  0.1592610000000000
  C79   C 0.9551434306797048  0.6268819661581274  0.3398872721560202  0.1591880000000000
  C80   C 0.7866634650728181  0.8769920429996956  0.4099856013130523  0.1587740000000000
  C81   C 0.6334015586101798  0.5159433557987432  0.2905971511673014  0.4727800000000000
  C82   C 0.6082355834458171  0.7659707156528771 -0.0409341429943394  0.4722520000000000
  C83   C 0.6082373014905308  0.4840298941300213  0.2090660933725514  0.4721270000000000
  C84   C 0.6334020532801743  0.7340565151219937  0.0405973668358896  0.4726640000000000
  H49   H 0.9245674980783561  0.9018991428867755  0.1030317492160659  0.1192430000000000
  H50   H 0.8172935585682123  0.6520367499079665  0.1469050044444226  0.1204290000000000
  H51   H 0.8172930342115755  0.5979633045431960  0.3969050905552677  0.1204140000000000
  H52   H 0.9245680934181009  0.8480999465505203  0.3530326501210721  0.1193170000000000
  H53   H 0.7346923263597301  0.8473943703927979  0.1621067935089336  0.1196310000000000
  H54   H 1.0071183124687142  0.5975061861715454  0.0877737474982455  0.1202860000000000
  H55   H 1.0071183994045338  0.6524936128805383  0.3377745738154738  0.1202260000000000
  H56   H 0.7346923368439314  0.9026049486675252  0.4121074997541046  0.1195190000000000
 Zn29  Zn 0.9588559151551689  0.5282288146221580  0.7182078560657420  0.7011550000000000
 Zn30  Zn 0.7828370996222932  0.7782446930815685  0.5314831322322489  0.7013420000000000
 Zn31  Zn 0.7828372108665759  0.9717554146423124  0.7814829697451923  0.7012870000000000
 Zn32  Zn 0.9588555891836023  0.7217714116637906  0.9682070695031157  0.7011790000000000
  N85   N 0.8861845011922902  0.9441498428822959  0.6839440380538855 -0.1936300000000000
  N86   N 0.8555989844679590  0.6942328434900813  0.5659060265751622 -0.1967130000000000
  N87   N 0.8555992711659952  0.5557669389922378  0.8159062345044711 -0.1964380000000000
  N88   N 0.8861848255597405  0.8058503364491518  0.9339439977654915 -0.1933270000000000
  N89   N 0.8240828007056377  0.9266793405631313  0.7035637009649308 -0.1987990000000000
  N90   N 0.9176837749893088  0.6767564571331806  0.5462681393407131 -0.1962130000000000
  N91   N 0.9176840031845307  0.5732432710268583  0.7962683028653804 -0.1960590000000000
  N92   N 0.8240830674075413  0.8233206939775043  0.9535638345601425 -0.1986110000000000
  N93   N 0.8210090456592679  0.8545711983577738  0.6126000227029599 -0.3191220000000000
  N94   N 0.9208299120945245  0.6047042099281510  0.6373090776849007 -0.3193260000000000
  N95   N 0.9208298297108695  0.6452959709880295  0.8873089211486840 -0.3195780000000000
  N96   N 0.8210091266961260  0.8954286626643005  0.8625999325614284 -0.3194070000000000
  O57   O 0.5756187884941848  0.5388833275115579  0.8050298164450591 -0.5022580000000000
  O58   O 0.6660134100134572  0.7889809218678839  0.4446783599314117 -0.5017060000000000
  O59   O 0.6660126066141403  0.4610189071733045  0.6946784321807454 -0.5014410000000000
  O60   O 0.5756193825634303  0.7111173674256780  0.5550296488908891 -0.5019790000000000
  O61   O 0.7092246798646807  0.5166675907335141  0.8368894413099129 -0.5066530000000000
  O62   O 0.5324235103517412  0.7666162571297116  0.4127154460133835 -0.5064689999999999
  O63   O 0.5324225289280599  0.4833835954525469  0.6627147205742010 -0.5064240000000000
  O64   O 0.7092258589439280  0.7333328522620807  0.5868903285902003 -0.5065210000000000
  C85   C 0.8825002276411210  0.9001947172013685  0.6294226526246179  0.1484760000000000
  C86   C 0.8593260296802134  0.6503165739533510  0.6204762442618902  0.1468600000000000
  C87   C 0.8593259081091978  0.5996833883744738  0.8704760730797623  0.1467650000000000
  C88   C 0.8825000555247524  0.8498055708260992  0.8794226374547991  0.1485070000000000
  C89   C 0.7866631460409051  0.8730083392806623  0.6599855634886598  0.1589670000000000
  C90   C 0.9551435338907910  0.6231174964030844  0.5898873796227918  0.1593290000000000
  C91   C 0.9551434381112434  0.6268825965806568  0.8398870733689799  0.1592930000000000
  C92   C 0.7866632242093485  0.8769919390952544  0.9099855064875586  0.1587090000000000
  C93   C 0.6334021877389013  0.5159437069601429  0.7905971910626965  0.4728860000000000
  C94   C 0.6082361344680560  0.7659708760882591  0.4590663601644220  0.4722340000000000
  C95   C 0.6082369338727274  0.4840288174490619  0.7090665552525075  0.4720910000000000
  C96   C 0.6334004520621714  0.7340563066887260  0.5405967016427942  0.4726600000000000
  H57   H 0.9245681183334138  0.9018996510569408  0.6030323405602123  0.1192710000000000
  H58   H 0.8172934076686376  0.6520365614865691  0.6469054529608147  0.1203350000000000
  H59   H 0.8172934535897713  0.5979632392698884  0.8969052463745144  0.1203530000000000
  H60   H 0.9245676813685250  0.8481008464207354  0.8530318864879518  0.1193560000000000
  H61   H 0.7346919178263727  0.8473950357124654  0.6621073787746443  0.1195940000000000
  H62   H 1.0071182740819928  0.5975059010574386  0.5877738425410738  0.1203040000000000
  H63   H 1.0071182292255538  0.6524938445028006  0.8377737378708364  0.1202350000000000
  H64   H 0.7346919626662411  0.9026053123253208  0.9121072524348780  0.1194750000000000