#calf20_pbe0-d4_DDEC6
_chemical_name_common                    'calf20_pbe0-d4'
_cell_length_a                           19.00031
_cell_length_b                           20.57008
_cell_length_c                           20.20762
_cell_angle_alpha                        90.00000
_cell_angle_beta                         116.37217
_cell_angle_gamma                        90.00001

_symmetry_cell_setting          triclinic
_symmetry_space_group_name_Hall 'P 1'
_symmetry_space_group_name_H-M  'P 1'
_symmetry_Int_Tables_number     1

_symmetry_equiv_pos_as_xyz 'x,y,z'

loop_
   _atom_site_label
   _atom_site_type_symbol
   _atom_site_fract_x
   _atom_site_fract_y
   _atom_site_fract_z
   _atom_site_charge
  Zn1  Zn 0.4592132508906520  0.0280803348520816  0.2182494651633796  0.5326490000000000
  Zn2  Zn 0.2835829989903230  0.2780774850211172  0.0318511234111956  0.5316540000000000
  Zn3  Zn 0.2835852054783099  0.4719221975166224  0.2818504152807833  0.5315900000000000
  Zn4  Zn 0.4592173298112773  0.2219204091730128  0.4682484390264511  0.5326740000000000
   N1   N 0.3883072824431870  0.4443199108508247  0.1840879895603494 -0.1434280000000000
   N2   N 0.3542120671031482  0.1943058675311778  0.0659351298471082 -0.1446000000000000
   N3   N 0.3542111847551027  0.0556934157780482  0.3159350368626422 -0.1444730000000000
   N4   N 0.3883066439445901  0.3056806299194825  0.4340876664008169 -0.1435910000000000
   N5   N 0.3255175441601520  0.4261362524730288  0.2047355011708655 -0.1506660000000000
   N6   N 0.4169421159027838  0.1760916536759166  0.0452253177996176 -0.1493600000000000
   N7   N 0.4169424451619275  0.0739084654272268  0.2952252880567149 -0.1496290000000000
   N8   N 0.3255176651238024  0.3238638513681937  0.4547352129778940 -0.1506740000000000
   N9   N 0.3214780674599364  0.3538375104834233  0.1121237533956704 -0.2467800000000000
  N10   N 0.4208648322497494  0.1037244289625920  0.1377573036978920 -0.2464960000000000
  N11   N 0.4208652807589655  0.1462749987997027  0.3877565295860977 -0.2465040000000000
  N12   N 0.3214783977119318  0.3961627949559521  0.3621232367932117 -0.2467240000000000
   O1   O 0.0741632242621312  0.0384481309480436  0.3054728734401924 -0.4236880000000000
   O2   O 0.1684922344728561  0.2880831328088899 -0.0551661291994859 -0.4216630000000000
   O3   O 0.1684930810561719 -0.0380830838401854  0.1948338045549285 -0.4218000000000000
   O4   O 0.0741632170116728  0.2115515943517909  0.0554731288327126 -0.4237790000000000
   O5   O 0.2090434046772769  0.0167190182364546  0.3398727868988525 -0.4289300000000000
   O6   O 0.0336316467725776  0.2666122454476053 -0.0893961246174538 -0.4282180000000000
   O7   O 0.0336319815089516 -0.0166124129359649  0.1606036517534201 -0.4281790000000000
   O8   O 0.2090435405406919  0.2332811187539472  0.0898727328153926 -0.4289680000000000
   C1   C 0.3833270867475662  0.4001483138252361  0.1288322568542193  0.1063570000000000
   C2   C 0.3591019585506385  0.1500953021850794  0.1211281048806148  0.1075730000000000
   C3   C 0.3591022277236787  0.0999046459756892  0.3711281495688153  0.1076140000000000
   C4   C 0.3833271650869660  0.3498519066039578  0.3788319427760310  0.1063550000000000
   C5   C 0.2878521083216402  0.3721428403127207  0.1605323564414433  0.1195910000000000
   C6   C 0.4545028140730726  0.1220367970261913  0.0893560003102157  0.1175620000000000
   C7   C 0.4545027811542746  0.1279634772482867  0.3393564449341822  0.1176370000000000
   C8   C 0.2878521673440698  0.3778569977059287  0.4105325287000540  0.1197430000000000
   C9   C 0.1332233553170022  0.0157369683127155  0.2913796779767974  0.3984840000000000
  C10   C 0.1094743079899467  0.2654930173590779 -0.0409514151680770  0.3953340000000000
  C11   C 0.1094742079813257 -0.0154927026561974  0.2090487380417045  0.3953880000000000
  C12   C 0.1332235361377682  0.2342632016261161  0.0413796341452442  0.3985220000000000
   H1   H 0.4253306708757350  0.4019001930791535  0.1016374406831078  0.1173700000000000
   H2   H 0.3170757400971810  0.1518723888862474  0.1482949697033399  0.1172560000000000
   H3   H 0.3170755684735113  0.0981271666044895  0.3982946507977366  0.1172990000000000
   H4   H 0.4253303448486335  0.3481001695295657  0.3516371312970999  0.1173360000000000
   H5   H 0.2356419507970042  0.3455946597590895  0.1629492695933114  0.1199100000000000
   H6   H 0.5066660313751200  0.0954361206719361  0.0869081548401440  0.1201710000000000
   H7   H 0.5066655912918967  0.1545637758172211  0.3369076765036653  0.1201270000000000
   H8   H 0.2356415465392248  0.4044056110740482  0.4129489184520715  0.1199490000000000
  Zn5  Zn 0.4592165064462149  0.0280800031278109  0.7182485517618615  0.5327110000000000
  Zn6  Zn 0.2835856534450490  0.2780779116565378  0.5318502435921222  0.5315790000000000
  Zn7  Zn 0.2835844255360392  0.4719221668646056  0.7818507442615811  0.5316370000000000
  Zn8  Zn 0.4592166047855377  0.2219204742026963  0.9682485436397863  0.5326240000000000
  N13   N 0.3883066307783334  0.4443192582204641  0.6840878499804792 -0.1434900000000000
  N14   N 0.3542112145832019  0.1943064826002586  0.5659346409756426 -0.1444390000000000
  N15   N 0.3542105503792946  0.0556932722325573  0.8159345465821769 -0.1444620000000000
  N16   N 0.3883068967886581  0.3056806017993678  0.9340879876313872 -0.1436090000000000
  N17   N 0.3255177787182643  0.4261361919136467  0.7047352792087928 -0.1505260000000000
  N18   N 0.4169413687153454  0.1760916576014410  0.5452251878401438 -0.1496930000000000
  N19   N 0.4169419666948037  0.0739083644972287  0.7952251295323445 -0.1497640000000000
  N20   N 0.3255178504811347  0.3238638370537407  0.9547354238343000 -0.1505350000000000
  N21   N 0.3214782774086318  0.3538370419512985  0.6121232009535543 -0.2468310000000000
  N22   N 0.4208653724024086  0.1037246948712574  0.6377566814972599 -0.2465320000000000
  N23   N 0.4208653568622284  0.1462754311894505  0.8877567984009797 -0.2464730000000000
  N24   N 0.3214780058345373  0.3961628476853666  0.8621233798518377 -0.2467790000000000
   O9   O 0.0741613511192974  0.0384490952344674  0.8054740479414471 -0.4237050000000000
  O10   O 0.1684926992670612  0.2880824634439048  0.4448349978804704 -0.4217420000000000
  O11   O 0.1684902786238947 -0.0380824577259224  0.6948347876871807 -0.4217980000000000
  O12   O 0.0741606071351568  0.2115513826223850  0.5554729211280368 -0.4237300000000000
  O13   O 0.2090411635801928  0.0167192106429628  0.8398718529336217 -0.4289880000000000
  O14   O 0.0336315039454772  0.2666126317705712  0.4106029142470175 -0.4281500000000000
  O15   O 0.0336292835825352 -0.0166119566564575  0.6606029995753148 -0.4281440000000000
  O16   O 0.2090409392487403  0.2332805081853287  0.5898728696002064 -0.4290050000000000
  C13   C 0.3833271143536743  0.4001479303698228  0.6288320136496210  0.1062800000000000
  C14   C 0.3591021480413694  0.1500954556186056  0.6211279599215918  0.1076580000000000
  C15   C 0.3591023409429659  0.0999050590625783  0.8711280826198711  0.1077520000000000
  C16   C 0.3833272722713969  0.3498517094087950  0.8788323224060893  0.1062770000000000
  C17   C 0.2878520486541892  0.3721428235684620  0.6605323585663107  0.1196830000000000
  C18   C 0.4545025616086746  0.1220365795615471  0.5893560813006840  0.1176120000000000
  C19   C 0.4545025987556102  0.1279635420184965  0.8393565276461498  0.1176010000000000
  C20   C 0.2878520447561997  0.3778570286623805  0.9105326214961461  0.1198060000000000
  C21   C 0.1332281670433227  0.0157361660276053  0.7913811302368702  0.3986480000000000
  C22   C 0.1094764748593632  0.2654932245967275  0.4590490964190914  0.3952720000000000
  C23   C 0.1094788848601921 -0.0154936728188874  0.7090500041058315  0.3952660000000000
  C24   C 0.1332255106419648  0.2342634843215453  0.5413804283354655  0.3986140000000000
   H9   H 0.4253304716891291  0.4018997667667273  0.6016371588889048  0.1172980000000000
  H10   H 0.3170753790567676  0.1518725899873376  0.6482953462137550  0.1173510000000000
  H11   H 0.3170749420355055  0.0981271918329713  0.8982949417906418  0.1173600000000000
  H12   H 0.4253305651965951  0.3481002032687678  0.8516372015254519  0.1172590000000000
  H13   H 0.2356414430238241  0.3455945720003840  0.6629489349350890  0.1199490000000000
  H14   H 0.5066652123285156  0.0954368457205015  0.5869071457857742  0.1200900000000000
  H15   H 0.5066652818958259  0.1545629036568077  0.8369070385740202  0.1200650000000000
  H16   H 0.2356417595742882  0.4044052204198098  0.9129490989879898  0.1200000000000000
  Zn9  Zn 0.4592173882351873  0.5280795500616522  0.2182490285907987  0.5326250000000000
 Zn10  Zn 0.2835848514704494  0.7780778001271065  0.0318517356007336  0.5316100000000000
 Zn11  Zn 0.2835821747895327  0.9719225692922761  0.2818509842303121  0.5316600000000000
 Zn12  Zn 0.4592163977466427  0.7219202310310350  0.4682490731525972  0.5326770000000000
  N25   N 0.3883071677424655  0.9443199043704135  0.1840884437660001 -0.1433040000000000
  N26   N 0.3542109265057758  0.6943063202602869  0.0659349162144400 -0.1445210000000000
  N27   N 0.3542110937779109  0.5556937165156316  0.3159349257178548 -0.1445290000000000
  N28   N 0.3883076406809321  0.8056800404448891  0.4340881552865612 -0.1436050000000000
  N29   N 0.3255185781388811  0.9261365449156975  0.2047354222932215 -0.1506140000000000
  N30   N 0.4169423502031352  0.6760914388336896  0.0452251115421363 -0.1492760000000000
  N31   N 0.4169416602812823  0.5739085352284833  0.2952251867215441 -0.1497340000000000
  N32   N 0.3255177383648736  0.8238638936866859  0.4547355308520732 -0.1507580000000000
  N33   N 0.3214781445307927  0.8538373704292305  0.1121236219306936 -0.2468230000000000
  N34   N 0.4208654891426057  0.6037245789954024  0.1377567847590001 -0.2465260000000000
  N35   N 0.4208651855614241  0.6462754449112049  0.3877568203949580 -0.2464720000000000
  N36   N 0.3214781450968185  0.8961625217094801  0.3621236906431438 -0.2466730000000000
  O17   O 0.0741616207443631  0.5384486337378862  0.3054733763018531 -0.4237130000000000
  O18   O 0.1684907321435508  0.7880828857005033 -0.0551659105205245 -0.4216010000000000
  O19   O 0.1684922320343141  0.4619171773649379  0.1948345351252782 -0.4217560000000000
  O20   O 0.0741629413397841  0.7115511772591246  0.0554737802989118 -0.4238520000000000
  O21   O 0.2090418618778186  0.5167191942047871  0.3398726801997675 -0.4289950000000000
  O22   O 0.0336299187320966  0.7666120234636254 -0.0893965080167632 -0.4281980000000000
  O23   O 0.0336310887398887  0.4833876196151273  0.1606032158395767 -0.4281880000000000
  O24   O 0.2090426956161395  0.7332812368976436  0.0898719393771017 -0.4289930000000000
  C25   C 0.3833270060218400  0.9001480416258042  0.1288321308558065  0.1063670000000000
  C26   C 0.3591022128561380  0.6500951957694113  0.1211279655693373  0.1075940000000000
  C27   C 0.3591020715312712  0.5999047415695667  0.3711281090237353  0.1076260000000000
  C28   C 0.3833271234778138  0.8498517969171788  0.3788322584558076  0.1063520000000000
  C29   C 0.2878522528327264  0.8721426781940923  0.1605321070029725  0.1195050000000000
  C30   C 0.4545028271820669  0.6220364678144535  0.0893563310874385  0.1174150000000000
  C31   C 0.4545025259802938  0.6279635795228021  0.3393562147363255  0.1177250000000000
  C32   C 0.2878521919660025  0.8778571519616151  0.4105324163960960  0.1197700000000000
  C33   C 0.1332255204265185  0.5157364573063109  0.2913802812731421  0.3986330000000000
  C34   C 0.1094768653432413  0.7654933446274256 -0.0409506889846936  0.3953110000000000
  C35   C 0.1094760834294559  0.4845068821129742  0.2090493127255147  0.3952870000000000
  C36   C 0.1332261040772377  0.7342634319714182  0.0413803516718136  0.3985670000000000
  H17   H 0.4253311221655299  0.9018998976332951  0.1016368663916511  0.1173550000000000
  H18   H 0.3170754879212667  0.6518726262547661  0.1482948570823683  0.1172740000000000
  H19   H 0.3170753901836211  0.5981274902603227  0.3982952597907007  0.1172920000000000
  H20   H 0.4253308505380744  0.8480998587699630  0.3516373770296309  0.1173300000000000
  H21   H 0.2356420400874260  0.8455952458377740  0.1629495360315737  0.1199070000000000
  H22   H 0.5066654730385091  0.5954365298350025  0.0869074327719203  0.1201830000000000
  H23   H 0.5066652766433720  0.6545633363191804  0.3369074063825211  0.1201410000000000
  H24   H 0.2356420844212795  0.9044051143248631  0.4129492592376987  0.1199910000000000
 Zn13  Zn 0.4592164446011708  0.5280797297620078  0.7182483507942895  0.5326230000000000
 Zn14  Zn 0.2835847161574111  0.7780777729272695  0.5318504300573560  0.5315060000000000
 Zn15  Zn 0.2835872857817643  0.9719216639616002  0.7818511648057000  0.5316320000000000
 Zn16  Zn 0.4592153927482821  0.7219198400976247  0.9682487536931871  0.5326070000000001
  N37   N 0.3883066239193262  0.9443198043894604  0.6840879539001573 -0.1434140000000000
  N38   N 0.3542108909312643  0.6943066632701062  0.5659348698209129 -0.1443680000000000
  N39   N 0.3542116223015221  0.5556936310601556  0.8159347508417035 -0.1445420000000000
  N40   N 0.3883060264131629  0.8056804385223163  0.9340881032975026 -0.1436450000000000
  N41   N 0.3255168692927544  0.9261365867968322  0.7047354048210440 -0.1504430000000000
  N42   N 0.4169418003126178  0.6760916118639108  0.5452252520347715 -0.1496160000000000
  N43   N 0.4169417978255472  0.5739081650620671  0.7952252506618287 -0.1498300000000000
  N44   N 0.3255175888955926  0.8238631343501938  0.9547352241128433 -0.1505490000000000
  N45   N 0.3214783306729726  0.8538372616912362  0.6121233552754930 -0.2468040000000000
  N46   N 0.4208651799384375  0.6037247956655638  0.6377566883592486 -0.2464970000000000
  N47   N 0.4208650655840357  0.6462753397650870  0.8877568125852278 -0.2464360000000000
  N48   N 0.3214783544626037  0.8961628868424920  0.8621231163785648 -0.2467120000000000
  O25   O 0.0741618700078329  0.5384485840501769  0.8054730153079110 -0.4236080000000000
  O26   O 0.1684924664041595  0.7880826996184240  0.4448345503607977 -0.4217010000000000
  O27   O 0.1684924581313569  0.4619171994548537  0.6948345056104024 -0.4219150000000000
  O28   O 0.0741615150533781  0.7115515421588546  0.5554731964096038 -0.4237380000000000
  O29   O 0.2090420664659132  0.5167192044787875  0.8398727850967299 -0.4290020000000000
  O30   O 0.0336313574673770  0.7666123916850014  0.4106031969132262 -0.4281370000000000
  O31   O 0.0336315143269533  0.4833876072057139  0.6606033334714149 -0.4281830000000000
  O32   O 0.2090419227834698  0.7332806281572087  0.5898727805265663 -0.4289680000000000
  C37   C 0.3833268825337547  0.9001479606774433  0.6288321519661423  0.1062960000000000
  C38   C 0.3591021549401265  0.6500952772224292  0.6211281771400816  0.1076560000000000
  C39   C 0.3591021276580912  0.5999047357044952  0.8711280681024088  0.1077510000000000
  C40   C 0.3833269210010303  0.8498520354083392  0.8788321167713951  0.1062490000000000
  C41   C 0.2878518962705124  0.8721430289822917  0.6605321129722077  0.1195620000000000
  C42   C 0.4545024718839462  0.6220365164816624  0.5893563893507886  0.1175390000000000
  C43   C 0.4545026735085803  0.6279633174335553  0.8393561631744044  0.1176920000000000
  C44   C 0.2878518552498748  0.8778569218804119  0.9105321236360718  0.1198160000000000
  C45   C 0.1332247602911744  0.5157366642698504  0.7913802083705989  0.3985830000000000
  C46   C 0.1094759449610702  0.7654931119777273  0.4590491961326003  0.3953060000000000
  C47   C 0.1094755810176218  0.4845068659712010  0.7090489530456417  0.3953630000000000
  C48   C 0.1332250657788064  0.7342634866390292  0.5413802079843223  0.3985300000000000
  H25   H 0.4253306729693636  0.9019002424821749  0.6016379206733357  0.1172900000000000
  H26   H 0.3170751604177671  0.6518727488167841  0.6482950714685592  0.1173290000000000
  H27   H 0.3170754428820735  0.5981274027307623  0.8982950049698710  0.1173590000000000
  H28   H 0.4253307504586194  0.8481001012788399  0.8516374531469916  0.1172670000000000
  H29   H 0.2356411140438676  0.8455944363896558  0.6629489303362672  0.1199400000000000
  H30   H 0.5066652428700730  0.5954367992274272  0.5869073212729027  0.1200480000000000
  H31   H 0.5066656048298750  0.6545635148081387  0.8369075382126517  0.1200670000000000
  H32   H 0.2356409516249310  0.9044053443758551  0.9129489458468303  0.1200360000000000
 Zn17  Zn 0.9592128894685445  0.0280802999676164  0.2182490055567117  0.5326520000000000
 Zn18  Zn 0.7835852008021820  0.2780780587493982  0.0318515665458936  0.5316760000000000
 Zn19  Zn 0.7835862914585772  0.4719218272869042  0.2818510431448691  0.5315980000000000
 Zn20  Zn 0.9592160475232230  0.2219199740619641  0.4682494054177515  0.5326660000000000
  N49   N 0.8883065044180881  0.4443197968772455  0.1840882404780951 -0.1434350000000000
  N50   N 0.8542121365380990  0.1943061827554066  0.0659348876748862 -0.1446240000000000
  N51   N 0.8542117347026100  0.0556937843772790  0.3159350382333162 -0.1445210000000000
  N52   N 0.8883063046214792  0.3056800996557827  0.4340882071823199 -0.1435370000000000
  N53   N 0.8255179190966735  0.4261367599483929  0.2047351882733099 -0.1506230000000000
  N54   N 0.9169421882342133  0.1760920456734419  0.0452256379880131 -0.1493380000000000
  N55   N 0.9169423789492859  0.0739084040376283  0.2952254396037651 -0.1495490000000000
  N56   N 0.8255177437889976  0.3238631331786785  0.4547352190677675 -0.1506990000000000
  N57   N 0.8214783428431732  0.3538373895893191  0.1121234314319884 -0.2467930000000000
  N58   N 0.9208649733871237  0.1037244611416601  0.1377571889146887 -0.2464700000000000
  N59   N 0.9208650277164592  0.1462754176136960  0.3877570131521749 -0.2464950000000000
  N60   N 0.8214785946916094  0.3961625882350365  0.3621233584044778 -0.2467060000000000
  O33   O 0.5741626373237200  0.0384482768915370  0.3054726026862402 -0.4236940000000000
  O34   O 0.6684911271197582  0.2880828242042520 -0.0551657322192394 -0.4216370000000000
  O35   O 0.6684935708025819 -0.0380830955371988  0.1948340763474680 -0.4217730000000000
  O36   O 0.5741628511598434  0.2115513793128910  0.0554738545113248 -0.4238060000000000
  O37   O 0.7090434521005962  0.0167191668995285  0.3398732587099002 -0.4289220000000000
  O38   O 0.5336306649699630  0.2666119692911390 -0.0893962617698588 -0.4282500000000000
  O39   O 0.5336330147485675 -0.0166125906385847  0.1606037391301170 -0.4281750000000000
  O40   O 0.7090430918609266  0.2332809293078114  0.0898722318207301 -0.4289470000000000
  C49   C 0.8833270162629870  0.4001480535686620  0.1288321882858799  0.1063590000000000
  C50   C 0.8591022413407554  0.1500949014427561  0.1211282487449055  0.1075420000000000
  C51   C 0.8591021053575971  0.0999047568788565  0.3711280571652830  0.1075850000000000
  C52   C 0.8833270004088661  0.3498520102035608  0.3788320043260117  0.1063190000000000
  C53   C 0.7878519704427134  0.3721430518009485  0.1605321276536659  0.1195520000000000
  C54   C 0.9545028987412035  0.1220367255092527  0.0893566980844038  0.1175720000000000
  C55   C 0.9545028512803451  0.1279632234796693  0.3393562279386049  0.1176130000000000
  C56   C 0.7878521193604404  0.3778568384831520  0.4105321287092253  0.1197320000000000
  C57   C 0.6332233192886069  0.0157367255069169  0.2913792850217965  0.3984740000000000
  C58   C 0.6094765601432961  0.2654933178712012 -0.0409510088364870  0.3953460000000000
  C59   C 0.6094740619770374 -0.0154929909401018  0.2090481667362793  0.3953590000000000
  C60   C 0.6332258597837616  0.2342634322049522  0.0413801390018832  0.3985070000000000
  H33   H 0.9253309279838601  0.4018999745041976  0.1016375821157566  0.1173820000000000
  H34   H 0.8170752539512117  0.1518724947838229  0.1482946034374565  0.1172580000000000
  H35   H 0.8170755975026888  0.0981273239116699  0.3982945220665439  0.1172930000000000
  H36   H 0.9253308909566127  0.3480998717598323  0.3516376777348401  0.1173490000000000
  H37   H 0.7356413474012696  0.3455948550339431  0.1629490484106814  0.1199150000000000
  H38   H 1.0066662920706380  0.0954365250344975  0.0869078831599485  0.1201780000000000
  H39   H 1.0066660383790120  0.1545637289843862  0.3369079651759886  0.1201480000000000
  H40   H 0.7356412365175700  0.4044051558547698  0.4129489696192973  0.1199480000000000
 Zn21  Zn 0.9592189086933796  0.0280793153657192  0.7182483094501002  0.5326850000000000
 Zn22  Zn 0.7835860516838890  0.2780780119145898  0.5318512928781008  0.5315640000000000
 Zn23  Zn 0.7835849351581082  0.4719221196858256  0.7818513615397058  0.5316080000000000
 Zn24  Zn 0.9592139857341359  0.2219195605046312  0.9682483838074152  0.5325920000000000
  N61   N 0.8883064300819532  0.4443196557171061  0.6840883001877736 -0.1434940000000000
  N62   N 0.8542101757764001  0.1943067353887059  0.5659345618329968 -0.1444720000000000
  N63   N 0.8542117698931473  0.0556940450337273  0.8159346447066937 -0.1444220000000000
  N64   N 0.8883067082046473  0.3056802192188743  0.9340884746106848 -0.1435450000000000
  N65   N 0.8255178377010050  0.4261367214355898  0.7047352582217794 -0.1505140000000000
  N66   N 0.9169415252777010  0.1760912873466106  0.5452252301256575 -0.1496660000000000
  N67   N 0.9169409584996969  0.0739081854327515  0.7952253796017114 -0.1497520000000000
  N68   N 0.8255178480030604  0.3238632838531039  0.9547353064063475 -0.1505550000000000
  N69   N 0.8214783407556808  0.3538372425629963  0.6121231713734331 -0.2468230000000000
  N70   N 0.9208653506375238  0.1037248106618232  0.6377564433811780 -0.2465470000000000
  N71   N 0.9208651426410722  0.1462755354983682  0.8877570455158289 -0.2464420000000000
  N72   N 0.8214782347894568  0.3961627259581764  0.8621233947083271 -0.2467400000000000
  O41   O 0.5741621553519696  0.0384488082232020  0.8054734738864509 -0.4236530000000000
  O42   O 0.6684913498802024  0.2880826525460241  0.4448345176431966 -0.4217140000000000
  O43   O 0.6684919056109051 -0.0380827659986584  0.6948344064028533 -0.4218290000000000
  O44   O 0.5741622126150076  0.2115511854096332  0.5554736471306083 -0.4237070000000000
  O45   O 0.7090428199506345  0.0167191230935911  0.8398730704105293 -0.4289630000000000
  O46   O 0.5336307714101399  0.2666121715917761  0.4106037272678084 -0.4281460000000000
  O47   O 0.5336314810857156 -0.0166121759272633  0.6606039050668872 -0.4281560000000000
  O48   O 0.7090426000764137  0.2332809107165917  0.5898725826679644 -0.4289280000000000
  C61   C 0.8833270733241918  0.4001480661284856  0.6288322399218310  0.1062950000000000
  C62   C 0.8591022208388739  0.1500949648007815  0.6211281613072246  0.1076810000000000
  C63   C 0.8591018965995254  0.0999047338063636  0.8711279950180815  0.1076900000000000
  C64   C 0.8833269439828357  0.3498521712359562  0.8788321851072030  0.1062260000000000
  C65   C 0.7878519763472649  0.3721432121403385  0.6605322726906191  0.1196530000000000
  C66   C 0.9545024194814369  0.1220364326231918  0.5893562785288612  0.1176380000000000
  C67   C 0.9545026987670666  0.1279633989387358  0.8393561929836749  0.1175880000000000
  C68   C 0.7878519606224796  0.3778569328043095  0.9105321482264267  0.1197900000000000
  C69   C 0.6332246970872077  0.0157365270137675  0.7913799641424896  0.3985500000000000
  C70   C 0.6094769600803152  0.2654934188421743  0.4590492791153267  0.3952790000000000
  C71   C 0.6094753124899354 -0.0154931720476724  0.7090489294008506  0.3953040000000000
  C72   C 0.6332260879551540  0.2342635652017661  0.5413803139829044  0.3984930000000000
  H41   H 0.9253308948945986  0.4018998809868617  0.6016375488828600  0.1173100000000000
  H42   H 0.8170750074111790  0.1518726677428535  0.6482950429101128  0.1173270000000000
  H43   H 0.8170752685872379  0.0981278934813928  0.8982953536217143  0.1173520000000000
  H44   H 0.9253309694959667  0.3481000745941870  0.8516375476880952  0.1172800000000000
  H45   H 0.7356412351823473  0.3455948723837604  0.6629488984998797  0.1199450000000000
  H46   H 1.0066648201295767  0.0954372517318654  0.5869069725653718  0.1200880000000000
  H47   H 1.0066655845581283  0.1545630847534021  0.8369076103503824  0.1200810000000000
  H48   H 0.7356414157658618  0.4044049670378347  0.9129491780567068  0.1199940000000000
 Zn25  Zn 0.9592162775393858  0.5280800979907599  0.2182489017602912  0.5326100000000000
 Zn26  Zn 0.7835841053655599  0.7780777122595059  0.0318509290158882  0.5316550000000000
 Zn27  Zn 0.7835826789210607  0.9719224074095186  0.2818508189973263  0.5316580000000000
 Zn28  Zn 0.9592155030845760  0.7219200621316162  0.4682491016828212  0.5326930000000000
  N73   N 0.8883073019626171  0.9443196524934245  0.1840882076345000 -0.1432940000000000
  N74   N 0.8542116565999619  0.6943061988437009  0.0659347072419293 -0.1445830000000000
  N75   N 0.8542112518340343  0.5556937314584589  0.3159347208632940 -0.1445730000000000
  N76   N 0.8883071731652707  0.8056801927797083  0.4340880937883914 -0.1435830000000000
  N77   N 0.8255184148203187  0.9261362702797731  0.2047353578725851 -0.1506270000000000
  N78   N 0.9169418185755502  0.6760917887116398  0.0452252464463662 -0.1492210000000000
  N79   N 0.9169414883808328  0.5739083765091757  0.2952254321747035 -0.1496370000000000
  N80   N 0.8255179095480764  0.8238636732709526  0.4547352963197615 -0.1507540000000000
  N81   N 0.8214782243969153  0.8538370745055184  0.1121233553546944 -0.2468500000000000
  N82   N 0.9208652672674071  0.6037245764212594  0.1377568055662906 -0.2465000000000000
  N83   N 0.9208651272379313  0.6462755390481131  0.3877569261650421 -0.2464780000000000
  N84   N 0.8214780761375458  0.8961626331133196  0.3621237115502138 -0.2466660000000000
  O49   O 0.5741617089182718  0.5384486960373546  0.3054736138161025 -0.4237110000000000
  O50   O 0.6684922798085730  0.7880830156769735 -0.0551660361779564 -0.4216120000000000
  O51   O 0.6684918286370904  0.4619173415922438  0.1948347288031541 -0.4217530000000000
  O52   O 0.5741629811812083  0.7115514444579545  0.0554733801042177 -0.4238220000000000
  O53   O 0.7090421193022811  0.5167192898437872  0.3398726581888086 -0.4289650000000000
  O54   O 0.5336318466708077  0.7666122685629454 -0.0893959237039052 -0.4281990000000000
  O55   O 0.5336309984154264  0.4833877911410768  0.1606033747215758 -0.4282200000000000
  O56   O 0.7090435620048406  0.7332811083041229  0.0898730224906012 -0.4289700000000000
  C73   C 0.8833272042319812  0.9001480222128696  0.1288321793269881  0.1063580000000000
  C74   C 0.8591021220541667  0.6500952168134803  0.1211279187976698  0.1075780000000000
  C75   C 0.8591020522999200  0.5999049560321369  0.3711281074160185  0.1076210000000000
  C76   C 0.8833271092790520  0.8498518942615776  0.3788321900560795  0.1063180000000000
  C77   C 0.7878523730267094  0.8721428764012529  0.1605324446307941  0.1195300000000000
  C78   C 0.9545028397925837  0.6220365939463840  0.0893562900468450  0.1173930000000000
  C79   C 0.9545025375367020  0.6279634732528785  0.3393563939737583  0.1177030000000000
  C80   C 0.7878521402487787  0.8778571855365478  0.4105322119682555  0.1197580000000000
  C81   C 0.6332259957307756  0.5157363399840015  0.2913802422593081  0.3985710000000000
  C82   C 0.6094746817821513  0.7654930366881399 -0.0409513375747290  0.3953250000000000
  C83   C 0.6094767983437780  0.4845066471695068  0.2090492370710738  0.3953360000000000
  C84   C 0.6332242683429355  0.7342633840405909  0.0413796974319318  0.3985070000000000
  H49   H 0.9253310739396629  0.9018998526303854  0.1016369908178687  0.1173680000000000
  H50   H 0.8170753651664945  0.6518724832158770  0.1482947289397389  0.1172530000000000
  H51   H 0.8170751362993671  0.5981275912786757  0.3982950686518568  0.1172860000000000
  H52   H 0.9253308652475974  0.8480999874452987  0.3516374277617259  0.1173490000000000
  H53   H 0.7356421732136146  0.8455952998048085  0.1629495493940952  0.1198940000000000
  H54   H 1.0066657053574390  0.5954366616274577  0.0869076389522500  0.1201960000000000
  H55   H 1.0066654786277747  0.6545631044437421  0.3369074358607910  0.1201490000000000
  H56   H 0.7356419480448776  0.9044049850276047  0.4129493771940572  0.1199830000000000
 Zn29  Zn 0.9592152127069262  0.5280801196603475  0.7182489052700112  0.5326280000000000
 Zn30  Zn 0.7835854784516119  0.7780781020903024  0.5318506908046728  0.5315490000000000
 Zn31  Zn 0.7835853613695422  0.9719220643377892  0.7818506576274534  0.5316250000000000
 Zn32  Zn 0.9592164721066032  0.7219202608500880  0.9682482583608735  0.5326490000000000
  N85   N 0.8883060958583510  0.9443190881384925  0.6840876576480962 -0.1433980000000000
  N86   N 0.8542113914132303  0.6943063212760443  0.5659347948305280 -0.1443990000000000
  N87   N 0.8542111073715682  0.5556935800386088  0.8159348216908011 -0.1445720000000000
  N88   N 0.8883066521980532  0.8056805953972548  0.9340879792980180 -0.1436700000000000
  N89   N 0.8255177865419833  0.9261364861177782  0.7047352242164352 -0.1504250000000000
  N90   N 0.9169415222003429  0.6760917141139124  0.5452254370864710 -0.1496130000000000
  N91   N 0.9169419372121109  0.5739084060009596  0.7952254307516431 -0.1498010000000000
  N92   N 0.8255177925369837  0.8238634943164446  0.9547353011042429 -0.1505470000000000
  N93   N 0.8214783188488228  0.8538372122729075  0.6121233283337962 -0.2468490000000000
  N94   N 0.9208648827300924  0.6037245291324427  0.6377569479647024 -0.2465240000000000
  N95   N 0.9208652499881621  0.6462753675052511  0.8877568783625320 -0.2464630000000000
  N96   N 0.8214784394501505  0.8961628704032664  0.8621232318357230 -0.2466920000000000
  O57   O 0.5741628626895953  0.5384486796340207  0.8054737179961420 -0.4235820000000000
  O58   O 0.6684924321179690  0.7880828406218958  0.4448348861845821 -0.4217210000000000
  O59   O 0.6684912138335338  0.4619171071658049  0.6948340925641856 -0.4218790000000000
  O60   O 0.5741613915139151  0.7115512438368554  0.5554731915440296 -0.4237460000000000
  O61   O 0.7090432579662340  0.5167189244081851  0.8398724374631735 -0.4289500000000000
  O62   O 0.5336318139862817  0.7666123081529563  0.4106033576582479 -0.4281410000000000
  O63   O 0.5336308227261551  0.4833879456792115  0.6606038473440675 -0.4281950000000000
  O64   O 0.7090421068923697  0.7332805768563625  0.5898730518694801 -0.4289560000000000
  C85   C 0.8833274174100193  0.9001483493677260  0.6288322703057126  0.1062930000000000
  C86   C 0.8591021461290113  0.6500949066673318  0.6211283164481707  0.1076610000000000
  C87   C 0.8591021147697349  0.5999048548812702  0.8711280795123537  0.1077470000000000
  C88   C 0.8833272708334539  0.8498520522765107  0.8788321295176428  0.1062710000000000
  C89   C 0.7878519245446209  0.8721430663242455  0.6605324910822563  0.1195520000000000
  C90   C 0.9545025417254972  0.6220365049450404  0.5893564452156815  0.1175670000000000
  C91   C 0.9545027114311854  0.6279632980994336  0.8393563152619262  0.1177190000000000
  C92   C 0.7878520586371202  0.8778569463904912  0.9105323663493312  0.1197940000000000
  C93   C 0.6332254293059769  0.5157364706250923  0.7913799665654930  0.3985040000000000
  C94   C 0.6094761355387175  0.7654932976836254  0.4590489205139360  0.3953150000000000
  C95   C 0.6094760600084203  0.4845066757665021  0.7090489694211412  0.3953590000000000
  C96   C 0.6332252598585704  0.7342635171715396  0.5413800294310571  0.3985210000000000
  H57   H 0.9253302891965480  0.9018995857645925  0.6016374151678460  0.1172960000000000
  H58   H 0.8170751990366378  0.6518724975928826  0.6482950637745497  0.1173290000000000
  H59   H 0.8170751943175661  0.5981274534660332  0.8982948432792752  0.1173570000000000
  H60   H 0.9253307473635697  0.8481002536721781  0.8516374803358250  0.1172610000000000
  H61   H 0.7356412712504662  0.8455943756557074  0.6629485816408710  0.1199330000000000
  H62   H 1.0066655818865342  0.5954367892812639  0.5869074922787916  0.1200530000000000
  H63   H 1.0066655203186701  0.6545631977796718  0.8369075236344083  0.1200660000000000
  H64   H 0.7356415288396582  0.9044051944987662  0.9129488980766104  0.1200240000000000