#calf20_pbesol_REPEAT
_chemical_name_common                    'calf20_pbesol'
_cell_length_a                           17.87500
_cell_length_b                           19.49434
_cell_length_c                           19.02195
_cell_angle_alpha                        90.00001
_cell_angle_beta                         116.38221
_cell_angle_gamma                        89.99999

_symmetry_cell_setting          triclinic
_symmetry_space_group_name_Hall 'P 1'
_symmetry_space_group_name_H-M  'P 1'
_symmetry_Int_Tables_number     1

_symmetry_equiv_pos_as_xyz 'x,y,z'

loop_
   _atom_site_label
   _atom_site_type_symbol
   _atom_site_fract_x
   _atom_site_fract_y
   _atom_site_fract_z
   _atom_site_charge
  Zn1  Zn 0.4585762002592328  0.0287628641571913  0.2186468219720372  0.7063330000000000
  Zn2  Zn 0.2835027184180675  0.2787805687892750  0.0313311397045090  0.7061410000000000
  Zn3  Zn 0.2835024788703085  0.4712194695454034  0.2813308956374592  0.7074940000000000
  Zn4  Zn 0.4585760557589357  0.2212376640263607  0.4686464639389051  0.7083750000000000
   N1   N 0.3865004036176197  0.4447151459419244  0.1845087639817156 -0.2274590000000000
   N2   N 0.3554262291174422  0.1947166489047460  0.0654602332336095 -0.2256430000000000
   N3   N 0.3554262690091551  0.0552833833266510  0.3154602474991283 -0.2275870000000000
   N4   N 0.3865003533639100  0.3052850588419185  0.4345087032071595 -0.2276770000000000
   N5   N 0.3248528677256652  0.4261099589318286  0.2050075722709209 -0.1310070000000000
   N6   N 0.4170581135498242  0.1761122014519137  0.0449423784664990 -0.1312940000000000
   N7   N 0.4170583943320224  0.0738879177921383  0.2949427601267303 -0.1292070000000000
   N8   N 0.3248528155915268  0.3238901485997304  0.4550075242604566 -0.1296930000000000
   N9   N 0.3209002584324658  0.3542635202959777  0.1124613844614969 -0.2902000000000000
  N10   N 0.4210301201587154  0.1042781045316747  0.1375178311830518 -0.2890260000000000
  N11   N 0.4210299508137663  0.1457221275827382  0.3875178669789373 -0.2900640000000000
  N12   N 0.3209000284563912  0.3957365319920517  0.3624611573202984 -0.2892010000000000
   O1   O 0.0754668384498606  0.0388804925354918  0.3057368183015063 -0.5526950000000000
   O2   O 0.1663886072367088  0.2889672052522782 -0.0556977861150538 -0.5528010000000000
   O3   O 0.1663885804791830 -0.0389671019814881  0.1943023541457175 -0.5530220000000000
   O4   O 0.0754671938090245  0.2111194993080422  0.0557369530855302 -0.5529630000000000
   O5   O 0.2109082493367462  0.0162080686437030  0.3380068827885446 -0.4847380000000000
   O6   O 0.0309962685736097  0.2661582141121504 -0.0880141286669984 -0.4844000000000000
   O7   O 0.0309959381363753 -0.0161583843428812  0.1619853080318128 -0.4844150000000000
   O8   O 0.2109087160210101  0.2337920691209154  0.0880072736544562 -0.4838130000000000
   C1   C 0.3824763037058784  0.4009381788858102  0.1289179639734515  0.0659690000000000
   C2   C 0.3594544466775637  0.1509504499801897  0.1210637927650011  0.0643970000000000
   C3   C 0.3594542748561080  0.0990496869519739  0.3710636439182519  0.0647930000000000
   C4   C 0.3824762403077039  0.3490618677478029  0.3789178962234662  0.0649880000000000
   C5   C 0.2869216246099857  0.3718125617574174  0.1610310159100856  0.1297800000000000
   C6   C 0.4549907984282668  0.1218220464243228  0.0889301051146038  0.1282680000000000
   C7   C 0.4549908126290658  0.1281778683278342  0.3389301386330432  0.1284750000000000
   C8   C 0.2869214317747235  0.3781874677973034  0.4110308955651456  0.1277480000000000
   C9   C 0.1339009608486069  0.0158171825086508  0.2911689141335789  0.4980000000000000
  C10   C 0.1079996476890204  0.2658250613730005 -0.0411413036939131  0.4984140000000000
  C11   C 0.1080003255996945 -0.0158252289812799  0.2088587566974583  0.4983660000000000
  C12   C 0.1339007830680980  0.2341827335660738  0.0411689687601558  0.4971430000000000
   H1   H 0.4246328095400850  0.4036888556058550  0.1015866154810208  0.1412420000000000
   H2   H 0.3173045660538983  0.1537085853114375  0.1484023930650200  0.1411870000000000
   H3   H 0.3173043244240675  0.0962916447027878  0.3984021072921720  0.1417260000000000
   H4   H 0.4246327232803859  0.3463113039677229  0.3515865605163371  0.1413530000000000
   H5   H 0.2347705747586787  0.3450674742158850  0.1638101062036766  0.1439670000000000
   H6   H 0.5071335988609285  0.0950682303219048  0.0861521413255938  0.1443480000000000
   H7   H 0.5071337753223798  0.1549318647463126  0.3361524636084509  0.1438930000000000
   H8   H 0.2347704453103816  0.4049325541080673  0.4138099636186102  0.1445180000000000
  Zn5  Zn 0.4585762810639217  0.0287626279801134  0.7186465042217397  0.7063330000000000
  Zn6  Zn 0.2835023962712377  0.2787808423306458  0.5313311177394285  0.7061430000000000
  Zn7  Zn 0.2835022292022255  0.4712196076484342  0.7813313076506405  0.7074970000000000
  Zn8  Zn 0.4585762639702771  0.2212372447207831  0.9686467091017963  0.7083739999999999
  N13   N 0.3865003126709780  0.4447154080497772  0.6845088232271299 -0.2274630000000000
  N14   N 0.3554261094608830  0.1947168577468263  0.5654600833077814 -0.2256530000000000
  N15   N 0.3554262666495582  0.0552832851445241  0.8154601874061247 -0.2275850000000000
  N16   N 0.3865003790008132  0.3052848030150093  0.9345087570682182 -0.2276780000000000
  N17   N 0.3248529912429769  0.4261099862182468  0.7050079051080097 -0.1310040000000000
  N18   N 0.4170578752349851  0.1761122095399278  0.5449421863287726 -0.1312840000000000
  N19   N 0.4170580327023877  0.0738878550452460  0.7949421955932348 -0.1292110000000000
  N20   N 0.3248527664480931  0.3238898552731617  0.9550074545755866 -0.1296900000000000
  N21   N 0.3209002174298928  0.3542637798862592  0.6124614941661125 -0.2901970000000000
  N22   N 0.4210295688237497  0.1042778540703476  0.6375173886962231 -0.2890400000000000
  N23   N 0.4210300276400033  0.1457219414152872  0.8875176447540608 -0.2900510000000000
  N24   N 0.3209001397605186  0.3957364552370716  0.8624612704645873 -0.2892110000000000
   O9   O 0.0754668876892527  0.0388807027171635  0.8057371166723131 -0.5527080000000000
  O10   O 0.1663884171067899  0.2889671638968076  0.4443022310655216 -0.5527980000000000
  O11   O 0.1663883191325948 -0.0389671512822749  0.6943022260864850 -0.5530320000000000
  O12   O 0.0754669924620448  0.2111194861593006  0.5557368358985085 -0.5529570000000000
  O13   O 0.2109079420652925  0.0162078045764409  0.8380065160852552 -0.4847220000000000
  O14   O 0.0309959866965839  0.2661581146478281  0.4119855748280741 -0.4844320000000000
  O15   O 0.0309957754555237 -0.0161582770574446  0.6619855052966463 -0.4844050000000000
  O16   O 0.2109084427366403  0.2337922542990125  0.5880072171070112 -0.4838140000000000
  C13   C 0.3824759805701857  0.4009383922846511  0.6289177783385546  0.0659680000000000
  C14   C 0.3594540929504788  0.1509506241404814  0.6210634271411674  0.0644100000000000
  C15   C 0.3594545375071604  0.0990495759546600  0.8710637634085558  0.0647860000000000
  C16   C 0.3824763390905249  0.3490616405874217  0.8789181119276944  0.0649950000000000
  C17   C 0.2869218134846371  0.3718125098499301  0.6610312229393454  0.1297790000000000
  C18   C 0.4549902692935512  0.1218220608156857  0.5889294068356602  0.1282690000000000
  C19   C 0.4549905617768278  0.1281780747419418  0.8389298711959072  0.1284680000000000
  C20   C 0.2869213731055715  0.3781871157530579  0.9110310867803990  0.1277470000000000
  C21   C 0.1339017953113539  0.0158170518085503  0.7911691860356972  0.4979970000000000
  C22   C 0.1079997598957610  0.2658250960131981  0.4588587055437989  0.4984290000000000
  C23   C 0.1079998380157875 -0.0158252172954617  0.7088586567160617  0.4983710000000000
  C24   C 0.1339005545537998  0.2341827815067924  0.5411689063194346  0.4971370000000000
   H9   H 0.4246323599603004  0.4036894199424657  0.6015862220085514  0.1412410000000000
  H10   H 0.3173045357765588  0.1537087735541528  0.6484022019382916  0.1411860000000000
  H11   H 0.3173046162283406  0.0962913529568690  0.8984023784427286  0.1417260000000000
  H12   H 0.4246327370339404  0.3463112027384994  0.8515867276053362  0.1413520000000000
  H13   H 0.2347708162124224  0.3450673235805342  0.6638105204970769  0.1439680000000000
  H14   H 0.5071328532531382  0.0950679560144025  0.5861515351569779  0.1443470000000000
  H15   H 0.5071333044521941  0.1549320231647067  0.8361517130155625  0.1438940000000000
  H16   H 0.2347704649565248  0.4049321840685240  0.9138099518066281  0.1445200000000000
  Zn9  Zn 0.4585762670510763  0.5287626481727536  0.2186465247440156  0.7063280000000000
 Zn10  Zn 0.2835023469163558  0.7787806579436782  0.0313311737933551  0.7061470000000000
 Zn11  Zn 0.2835024007351543  0.9712195418000382  0.2813311470160920  0.7074920000000000
 Zn12  Zn 0.4585762509901314  0.7212375388502713  0.4686464745154825  0.7083660000000001
  N25   N 0.3865006190133434  0.9447152639161011  0.1845086456238248 -0.2274530000000000
  N26   N 0.3554261044590352  0.6947167588211420  0.0654602190635033 -0.2256520000000000
  N27   N 0.3554265569251207  0.5552831711811120  0.3154604325609925 -0.2275840000000000
  N28   N 0.3865005025333203  0.8052850497199551  0.4345087419774933 -0.2276750000000000
  N29   N 0.3248532255230909  0.9261102664819700  0.2050076837151208 -0.1310140000000000
  N30   N 0.4170581099964250  0.6761123880233906  0.0449425030143671 -0.1312860000000000
  N31   N 0.4170580187380283  0.5738879740444524  0.2949421879200784 -0.1292070000000000
  N32   N 0.3248526674516218  0.8238898868988977  0.4550073240063741 -0.1296960000000000
  N33   N 0.3209003072473381  0.8542637098394170  0.1124612487489545 -0.2902090000000000
  N34   N 0.4210299318201096  0.6042780920941873  0.1375177248347476 -0.2890310000000000
  N35   N 0.4210301486178090  0.6457220243146309  0.3875178078847751 -0.2900600000000000
  N36   N 0.3209002481371891  0.8957365134194814  0.3624612867576382 -0.2891960000000000
  O17   O 0.0754668477977596  0.5388803846110567  0.3057367182492036 -0.5526890000000000
  O18   O 0.1663882282295606  0.7889673589128607 -0.0556976663712583 -0.5527960000000000
  O19   O 0.1663885344701422  0.4610329963187870  0.1943023245226264 -0.5530240000000000
  O20   O 0.0754667286192802  0.7111193593159786  0.0557367586491093 -0.5529680000000000
  O21   O 0.2109084101530410  0.5162080912256666  0.3380071489662456 -0.4847440000000000
  O22   O 0.0309957881039307  0.7661580352598885 -0.0880147274357176 -0.4844070000000000
  O23   O 0.0309958735719072  0.4838415969806856  0.1619852765963812 -0.4844080000000000
  O24   O 0.2109080873423146  0.7337920034239077  0.0880068221448012 -0.4838100000000000
  C25   C 0.3824764753980960  0.9009385623364405  0.1289179480864084  0.0659690000000000
  C26   C 0.3594542236762073  0.6509504903147783  0.1210635706935853  0.0644070000000000
  C27   C 0.3594548221543494  0.5990492451993831  0.3710639932666767  0.0647920000000000
  C28   C 0.3824765485906594  0.8490620318753848  0.3789181413564139  0.0649900000000000
  C29   C 0.2869218098316799  0.8718128810064985  0.1610311698116861  0.1297860000000000
  C30   C 0.4549907242163573  0.6218222787338431  0.0889300265035847  0.1282640000000000
  C31   C 0.4549905045492651  0.6281781457821249  0.3389295751528719  0.1284690000000000
  C32   C 0.2869213192316773  0.8781873197831783  0.4110305848886875  0.1277400000000000
  C33   C 0.1339003002793850  0.5158172948527897  0.2911687291151464  0.4979960000000000
  C34   C 0.1079996837167277  0.7658250994948046 -0.0411414292420976  0.4984120000000000
  C35   C 0.1080003430061998  0.4841747665896525  0.2088587785286126  0.4983650000000000
  C36   C 0.1339006458981353  0.7341827332358533  0.0411688419241989  0.4971480000000000
  H17   H 0.4246327791707429  0.9036891068448182  0.1015863606690369  0.1412470000000000
  H18   H 0.3173043019225308  0.6537084807856715  0.1484021153707923  0.1411850000000000
  H19   H 0.3173053345040527  0.5962910505722263  0.3984029049611412  0.1417250000000000
  H20   H 0.4246333041343453  0.8463115731579011  0.3515869667143052  0.1413520000000000
  H21   H 0.2347709717608448  0.8450678872595649  0.1638102597344613  0.1439640000000000
  H22   H 0.5071336253255062  0.5950684639824011  0.0861522088920351  0.1443460000000000
  H23   H 0.5071328024115248  0.6549324440838799  0.3361512989615234  0.1438930000000000
  H24   H 0.2347700220049221  0.9049321598830341  0.4138093860900086  0.1445210000000000
 Zn13  Zn 0.4585765202956690  0.5287627156487571  0.7186465093427125  0.7063290000000000
 Zn14  Zn 0.2835020968481657  0.7787805450827830  0.5313309322689990  0.7061490000000000
 Zn15  Zn 0.2835023858171773  0.9712195184774312  0.7813313268179874  0.7074930000000000
 Zn16  Zn 0.4585763359332693  0.7212374543736665  0.9686468852822869  0.7083670000000000
  N37   N 0.3865000322853627  0.9447153239866584  0.6845084316693638 -0.2274640000000000
  N38   N 0.3554263062651921  0.6947168669116093  0.5654600484698367 -0.2256610000000000
  N39   N 0.3554261391118546  0.5552834147462005  0.8154602683630445 -0.2275880000000000
  N40   N 0.3865006706190806  0.8052851143532213  0.9345091338457412 -0.2276740000000000
  N41   N 0.3248530679347433  0.9261097450752021  0.7050078323426077 -0.1310020000000000
  N42   N 0.4170581625079515  0.6761121585151390  0.5449422763616281 -0.1312750000000000
  N43   N 0.4170580353185590  0.5738879235683130  0.7949423982761391 -0.1292090000000000
  N44   N 0.3248526229748641  0.8238898562956763  0.9550074401704297 -0.1296960000000000
  N45   N 0.3209000978996836  0.8542634891567300  0.6124612125419767 -0.2902080000000000
  N46   N 0.4210300332199446  0.6042781655706960  0.6375177534055053 -0.2890340000000000
  N47   N 0.4210299127686717  0.6457220936660485  0.8875177692508388 -0.2900480000000000
  N48   N 0.3209002444051465  0.8957365324315392  0.8624614488618915 -0.2892080000000000
  O25   O 0.0754665851367102  0.5388806026602143  0.8057367610359292 -0.5527020000000000
  O26   O 0.1663881596515562  0.7889671489419386  0.4443022787249831 -0.5527860000000000
  O27   O 0.1663882310191636  0.4610327839689873  0.6943022319605364 -0.5530300000000000
  O28   O 0.0754666598922919  0.7111195771182099  0.5557367736594606 -0.5529700000000000
  O29   O 0.2109076366091871  0.5162078213695023  0.8380063575916831 -0.4847270000000000
  O30   O 0.0309954131935351  0.7661583746935448  0.4119848697038543 -0.4844270000000000
  O31   O 0.0309955669318438  0.4838418680493057  0.6619848531945514 -0.4844070000000000
  O32   O 0.2109077901951830  0.7337920737622289  0.5880063933806293 -0.4838010000000000
  C37   C 0.3824757589266217  0.9009385351809012  0.6289174565634005  0.0659740000000000
  C38   C 0.3594544922585177  0.6509506854770967  0.6210636463422441  0.0644120000000000
  C39   C 0.3594544420830940  0.5990498187832205  0.8710638445657152  0.0647870000000000
  C40   C 0.3824767610048704  0.8490620372754559  0.8789185970846052  0.0649940000000000
  C41   C 0.2869218898717831  0.8718122550410677  0.6610314358765071  0.1297790000000000
  C42   C 0.4549907071748752  0.6218221440836952  0.5889298168718705  0.1282620000000000
  C43   C 0.4549906160814532  0.6281781809435288  0.8389301258661838  0.1284640000000000
  C44   C 0.2869212042757700  0.8781870735064979  0.9110308449937200  0.1277460000000000
  C45   C 0.1339011299252616  0.5158170651028624  0.7911688394646511  0.4979960000000000
  C46   C 0.1080002806500912  0.7658253636083310  0.4588586117391408  0.4984200000000000
  C47   C 0.1079998506566396  0.4841747742923412  0.7088584160542933  0.4983710000000000
  C48   C 0.1339008809999080  0.7341829293308422  0.5411687784587774  0.4971410000000000
  H25   H 0.4246317867923091  0.9036894268040752  0.6015857038902493  0.1412430000000000
  H26   H 0.3173047461270129  0.6537089134943376  0.6484022423294815  0.1411840000000000
  H27   H 0.3173045258564923  0.5962915841185925  0.8984024404394489  0.1417250000000000
  H28   H 0.4246335075702141  0.8463118002272074  0.8515874897180830  0.1413510000000000
  H29   H 0.2347714384990631  0.8450667714112029  0.6638109405886757  0.1439670000000000
  H30   H 0.5071333854732715  0.5950680037500236  0.5861519106282582  0.1443480000000000
  H31   H 0.5071334416167415  0.6549320216087388  0.8361520645006917  0.1438940000000000
  H32   H 0.2347698591096639  0.9049319011235435  0.9138093815277692  0.1445210000000000
 Zn17  Zn 0.9585767854255693  0.0287625900197183  0.2186468846848128  0.7063210000000000
 Zn18  Zn 0.7835016387233673  0.2787804670503802  0.0313306883453252  0.7061430000000000
 Zn19  Zn 0.7835018429463313  0.4712197014501710  0.2813308848593820  0.7074880000000000
 Zn20  Zn 0.9585770057612785  0.2212374752011190  0.4686468805520621  0.7083960000000000
  N49   N 0.8865004230336513  0.4447150105521333  0.1845091508615480 -0.2274810000000000
  N50   N 0.8554261449505765  0.1947165851709624  0.0654597182912245 -0.2256570000000000
  N51   N 0.8554263692087999  0.0552832436187177  0.3154598995508284 -0.2276380000000000
  N52   N 0.8864999742718191  0.3052846822424596  0.4345086198326825 -0.2277040000000000
  N53   N 0.8248521432577590  0.4261102176160029  0.2050070596065609 -0.1309810000000000
  N54   N 0.9170588151723275  0.1761124486896815  0.0449428042054322 -0.1312830000000000
  N55   N 0.9170584119489940  0.0738879996442834  0.2949424533263781 -0.1291860000000000
  N56   N 0.8248527091932288  0.3238903055430796  0.4550075962689959 -0.1296740000000000
  N57   N 0.8209003531790026  0.3542634435871631  0.1124613546991221 -0.2901670000000000
  N58   N 0.9210297456701023  0.1042779055187768  0.1375174730211292 -0.2890200000000000
  N59   N 0.9210296895385804  0.1457221182642492  0.3875175581111255 -0.2900870000000000
  N60   N 0.8209004379987197  0.3957366650839290  0.3624614167415012 -0.2892190000000000
  O33   O 0.5754663929447029  0.0388799896729135  0.3057358126475418 -0.5526980000000000
  O34   O 0.6663878877832212  0.2889677460984578 -0.0556984564539645 -0.5528120000000000
  O35   O 0.6663881157271661 -0.0389678448756180  0.1943015862554732 -0.5530100000000000
  O36   O 0.5754662794268794  0.2111200906214566  0.0557356613333422 -0.5529570000000000
  O37   O 0.7109073292157319  0.0162083798008676  0.3380053280301246 -0.4847220000000000
  O38   O 0.5309951571853192  0.2661579424125541 -0.0880163191504918 -0.4844290000000000
  O39   O 0.5309952989917790 -0.0161579560414595  0.1619835761979916 -0.4844260000000000
  O40   O 0.7109074268751212  0.2337916289278750  0.0880056654541464 -0.4837990000000000
  C49   C 0.8824766062823342  0.4009377051390407  0.1289185858030872  0.0659210000000000
  C50   C 0.8594539963899046  0.1509498006101775  0.1210629601124774  0.0644000000000000
  C51   C 0.8594544455345882  0.0990498143198981  0.3710634383314243  0.0648530000000000
  C52   C 0.8824758894709004  0.3490618287013890  0.3789177207091021  0.0649800000000000
  C53   C 0.7869208260150449  0.3718128539742446  0.1610302441322331  0.1297480000000000
  C54   C 0.9549913628930302  0.1218222305472178  0.0889307006075678  0.1282560000000000
  C55   C 0.9549907960185269  0.1281781592909435  0.3389301021913309  0.1284720000000000
  C56   C 0.7869217377334233  0.3781879189904570  0.4110310594511752  0.1277680000000000
  C57   C 0.6339002602062799  0.0158169590001096  0.2911677910693716  0.4979970000000000
  C58   C 0.6079996085681758  0.2658254866899480 -0.0411424404867992  0.4984460000000000
  C59   C 0.6079997020117682 -0.0158255127558176  0.2088574970336645  0.4983680000000000
  C60   C 0.6338995168253208  0.2341829167832836  0.0411676173656706  0.4971240000000000
  H33   H 0.9246338846768847  0.4036882377771334  0.1015880452529121  0.1412600000000000
  H34   H 0.8173033250871188  0.1537078862751663  0.1484007370460846  0.1411850000000000
  H35   H 0.8173043458741623  0.0962913128549969  0.3984017326683430  0.1417090000000000
  H36   H 0.9246323239044548  0.3463106606966392  0.3515863581871203  0.1413810000000000
  H37   H 0.7347694182515658  0.3450681771245687  0.1638086382043495  0.1439730000000000
  H38   H 1.0071347302335674  0.0950688419929486  0.0861534605410961  0.1443490000000000
  H39   H 1.0071337068518906  0.1549320610848106  0.3361524835244146  0.1438960000000000
  H40   H 0.7347711081059259  0.4049333312137214  0.4138102962912601  0.1445130000000000
 Zn21  Zn 0.9585768030951420  0.0287625988260101  0.7186468586305782  0.7063380000000000
 Zn22  Zn 0.7835018812730099  0.2787803577717616  0.5313311202418954  0.7061390000000000
 Zn23  Zn 0.7835020893829350  0.4712193087416320  0.7813309586105366  0.7074790000000000
 Zn24  Zn 0.9585772110083814  0.2212376413756516  0.9686469575480504  0.7083790000000000
  N61   N 0.8865003845894341  0.4447150928319965  0.6845089715138885 -0.2274740000000000
  N62   N 0.8554264143024860  0.1947166795171202  0.5654600212729562 -0.2256520000000000
  N63   N 0.8554261301635905  0.0552835444403445  0.8154598703403819 -0.2275800000000000
  N64   N 0.8865006008758261  0.3052849781950202  0.9345092511193649 -0.2276890000000000
  N65   N 0.8248525450331841  0.4261100079159135  0.7050072689147401 -0.1309680000000000
  N66   N 0.9170585659553143  0.1761121214956762  0.5449426059124857 -0.1312900000000000
  N67   N 0.9170585857442639  0.0738877550086516  0.7949428072346909 -0.1292150000000000
  N68   N 0.8248523155131336  0.3238897798854218  0.9550072076408985 -0.1296850000000000
  N69   N 0.8209005841442355  0.3542633104338648  0.6124614241915753 -0.2901790000000000
  N70   N 0.9210298071956461  0.1042779485715691  0.6375176522099415 -0.2890100000000000
  N71   N 0.9210296600917376  0.1457223355683767  0.8875176754524968 -0.2900700000000000
  N72   N 0.8209004326991843  0.3957363676091927  0.8624615003521535 -0.2891960000000000
  O41   O 0.5754663816708037  0.0388798757312208  0.8057356516146705 -0.5526790000000000
  O42   O 0.6663879973371443  0.2889678451339330  0.4443013737170849 -0.5528340000000000
  O43   O 0.6663880437987628 -0.0389677530939211  0.6943013990137081 -0.5530350000000001
  O44   O 0.5754663310057618  0.2111199708635279  0.5557360546261297 -0.5529760000000000
  O45   O 0.7109077528325068  0.0162082194779244  0.8380061296023192 -0.4847510000000000
  O46   O 0.5309955148492727  0.2661579712056085  0.4119844138137736 -0.4844140000000000
  O47   O 0.5309956280396789 -0.0161579010786681  0.6619842879883577 -0.4844050000000000
  O48   O 0.7109072260099414  0.2337919355908737  0.5880054227785404 -0.4837730000000000
  C61   C 0.8824766702447612  0.4009380708111868  0.6289184747542115  0.0659180000000000
  C62   C 0.8594544277953987  0.1509501230720422  0.6210634752322244  0.0644060000000000
  C63   C 0.8594538523656979  0.0990499716915758  0.8710630274335388  0.0647970000000000
  C64   C 0.8824766739113157  0.3490623904153691  0.8789185362071716  0.0649860000000000
  C65   C 0.7869214212514590  0.3718127173362943  0.6610308596019042  0.1297600000000000
  C66   C 0.9549909567686270  0.1218218596703494  0.5889304192056305  0.1282500000000000
  C67   C 0.9549911190095114  0.1281778315091217  0.8389304013673144  0.1284760000000000
  C68   C 0.7869209810105383  0.3781872312890010  0.9110301339351082  0.1277500000000000
  C69   C 0.6338992271724038  0.0158170734003256  0.7911677037375802  0.4980000000000000
  C70   C 0.6079986262477554  0.2658254206304821  0.4588574477312948  0.4984560000000000
  C71   C 0.6079988596596105 -0.0158253702369624  0.7088574579151714  0.4983700000000000
  C72   C 0.6339008106806507  0.2341831835264553  0.5411681653789896  0.4971170000000000
  H41   H 0.9246334355875757  0.4036886516697205  0.6015875254776539  0.1412590000000000
  H42   H 0.8173041000333732  0.1537085544511556  0.6484016098468939  0.1411750000000000
  H43   H 0.8173036160681874  0.0962919725287517  0.8984010831588991  0.1417270000000000
  H44   H 0.9246340722779927  0.3463116750108224  0.8515880447910763  0.1413510000000000
  H45   H 0.7347703760370156  0.3450676342357894  0.6638094144157702  0.1439680000000000
  H46   H 1.0071338967320114  0.0950679831580797  0.5861527045005244  0.1443460000000000
  H47   H 1.0071341548920076  0.1549314537124649  0.8361532148945627  0.1438890000000000
  H48   H 0.7347693100973249  0.4049317915710107  0.9138086113917240  0.1445190000000000
 Zn25  Zn 0.9585770024805171  0.5287625106857576  0.2186471088375767  0.7063500000000000
 Zn26  Zn 0.7835017618312653  0.7787805906551969  0.0313306744017702  0.7061640000000000
 Zn27  Zn 0.7835017358322277  0.9712195555602796  0.2813308307936867  0.7074820000000001
 Zn28  Zn 0.9585766737140585  0.7212375822918804  0.4686469918161758  0.7083830000000000
  N73   N 0.8865001981704326  0.9447151965102002  0.1845086702320836 -0.2274310000000000
  N74   N 0.8554265437456897  0.6947168682767949  0.0654603190894514 -0.2256740000000000
  N75   N 0.8554263518356715  0.5552834834511904  0.3154600594938267 -0.2275780000000000
  N76   N 0.8865003028355195  0.8052851243649519  0.4345090469773688 -0.2277030000000000
  N77   N 0.8248529371628619  0.9261098630968040  0.2050077642302007 -0.1310390000000000
  N78   N 0.9170581546327574  0.6761118901437733  0.0449423786790299 -0.1312760000000000
  N79   N 0.9170584352403854  0.5738879410985054  0.2949424801536989 -0.1292250000000000
  N80   N 0.8248523788313391  0.8238900440729984  0.4550072972793362 -0.1296680000000000
  N81   N 0.8209003481055012  0.8542635060521789  0.1124613444888927 -0.2902170000000000
  N82   N 0.9210296676601329  0.6042778382246591  0.1375177448712409 -0.2890250000000000
  N83   N 0.9210297111526722  0.6457222864659479  0.3875174668987905 -0.2900540000000000
  N84   N 0.8209002971050653  0.8957367518606036  0.3624613114829341 -0.2891900000000000
  O49   O 0.5754664657619341  0.5388799086038248  0.3057359414686942 -0.5526850000000000
  O50   O 0.6663880889681358  0.7889676110572104 -0.0556983620280444 -0.5528130000000000
  O51   O 0.6663879018432242  0.4610322613028727  0.1943012565388030 -0.5530320000000000
  O52   O 0.5754664647933836  0.7111200358876615  0.0557358083237057 -0.5529510000000000
  O53   O 0.7109075403193384  0.5162082707661586  0.3380056075491282 -0.4847340000000000
  O54   O 0.5309954089522400  0.7661580022282438 -0.0880159742603524 -0.4844260000000000
  O55   O 0.5309953983341739  0.4838421519643637  0.1619842314558211 -0.4844010000000000
  O56   O 0.7109076774468540  0.7337917402021450  0.0880060128621790 -0.4838070000000000
  C73   C 0.8824760456332243  0.9009382513102971  0.1289178159622504  0.0659620000000000
  C74   C 0.8594546286668512  0.6509505409190862  0.1210638704320466  0.0644190000000000
  C75   C 0.8594543678976472  0.5990501029747864  0.3710634577782061  0.0647900000000000
  C76   C 0.8824765804327841  0.8490620149264186  0.3789185709743718  0.0650050000000000
  C77   C 0.7869217280674120  0.8718122437649647  0.1610309542909599  0.1298060000000000
  C78   C 0.9549904105168767  0.6218215914306665  0.0889299040304225  0.1282580000000000
  C79   C 0.9549908589183047  0.6281783738326854  0.3389303405560914  0.1284720000000000
  C80   C 0.7869210909535903  0.8781872883707309  0.4110307506178998  0.1277280000000000
  C81   C 0.6338998963065045  0.5158170568947891  0.2911678036281946  0.4979920000000000
  C82   C 0.6079998276495103  0.7658254555521959 -0.0411422174150353  0.4984470000000000
  C83   C 0.6079986667103152  0.4841746828786266  0.2088573666221068  0.4983660000000000
  C84   C 0.6338997379301933  0.7341829156603145  0.0411678580685402  0.4971220000000000
  H49   H 0.9246325973294901  0.9036892068282292  0.1015864208476427  0.1412450000000000
  H50   H 0.8173047927559155  0.6537091841562995  0.1484024553737628  0.1411810000000000
  H51   H 0.8173041061928369  0.5962917296488117  0.3984017429320312  0.1417240000000000
  H52   H 0.9246333698598602  0.8463115473985150  0.3515876266115928  0.1413510000000000
  H53   H 0.7347710547631146  0.8450670793553279  0.1638102009141885  0.1439560000000000
  H54   H 1.0071327938295356  0.5950673745415147  0.0861519045929704  0.1443450000000000
  H55   H 1.0071338085627306  0.6549320601870398  0.3361525602905322  0.1438910000000000
  H56   H 0.7347700542698833  0.9049322283085194  0.4138091911657596  0.1445200000000000
 Zn29  Zn 0.9585766042907851  0.5287626732243950  0.7186467527468046  0.7063430000000001
 Zn30  Zn 0.7835018664626637  0.7787806652694418  0.5313310724749636  0.7061440000000000
 Zn31  Zn 0.7835018997136799  0.9712195171031416  0.7813307477960856  0.7074810000000000
 Zn32  Zn 0.9585767380393493  0.7212373167540658  0.9686468967682261  0.7083760000000000
  N85   N 0.8865003989270039  0.9447151612302770  0.6845091005414664 -0.2274700000000000
  N86   N 0.8554265030619124  0.6947169869714319  0.5654602093822778 -0.2256590000000000
  N87   N 0.8554264537270249  0.5552830888957360  0.8154602049418372 -0.2275760000000000
  N88   N 0.8865002907895475  0.8052848187112835  0.9345087511327040 -0.2276830000000000
  N89   N 0.8248524752787116  0.9261101507027225  0.7050073526215247 -0.1309760000000000
  N90   N 0.9170582608833819  0.6761121285273320  0.5449424304626919 -0.1312840000000000
  N91   N 0.9170582141584216  0.5738878846714921  0.7949424315099163 -0.1292230000000000
  N92   N 0.8248526619311626  0.8238900195708405  0.9550073913689485 -0.1296930000000000
  N93   N 0.8209003816488738  0.8542636056111711  0.6124614059014525 -0.2901720000000000
  N94   N 0.9210296909657116  0.6042780023805062  0.6375175899889186 -0.2890250000000000
  N95   N 0.9210297460721667  0.6457219626809092  0.8875178024113031 -0.2900710000000000
  N96   N 0.8209005457545746  0.8957365714685722  0.8624614355649942 -0.2891980000000000
  O57   O 0.5754666458123431  0.5388801252335451  0.8057358705518599 -0.5526799999999999
  O58   O 0.6663880056833703  0.7889679173639831  0.4443013588656158 -0.5528280000000000
  O59   O 0.6663881263702542  0.4610320457997486  0.6943013393382729 -0.5530510000000000
  O60   O 0.5754665733017849  0.7111198384785294  0.5557360247419068 -0.5529680000000000
  O61   O 0.7109079910692132  0.5162083506387392  0.8380061251240165 -0.4847410000000000
  O62   O 0.5309957459548731  0.7661578450672806  0.4119846600780638 -0.4844040000000000
  O63   O 0.5309960048517864  0.4838422241779132  0.6619849229496053 -0.4843900000000000
  O64   O 0.7109076196850636  0.7337919443071165  0.5880057846513719 -0.4838000000000000
  C85   C 0.8824765480851090  0.9009381270350929  0.6289184710037827  0.0659150000000000
  C86   C 0.8594545059919670  0.6509505983063345  0.6210636822212254  0.0644110000000000
  C87   C 0.8594544239824951  0.5990492579937640  0.8710636218555605  0.0647960000000000
  C88   C 0.8824763180876063  0.8490620049756658  0.8789180443850038  0.0649900000000000
  C89   C 0.7869212169905956  0.8718128691192593  0.6610306898263478  0.1297650000000000
  C90   C 0.9549905160902955  0.6218219094262719  0.5889298960173480  0.1282620000000000
  C91   C 0.9549905466985096  0.6281779757767469  0.8389299137306179  0.1284830000000000
  C92   C 0.7869215338320225  0.8781876431844966  0.9110306573378678  0.1277530000000000
  C93   C 0.6338997552020469  0.5158172172837480  0.7911679382254262  0.4979900000000000
  C94   C 0.6079985556596692  0.7658252982414020  0.4588574869697161  0.4984400000000000
  C95   C 0.6079981904996894  0.4841748518031812  0.7088574410784153  0.4983760000000000
  C96   C 0.6339005776291591  0.7341830517715353  0.5411681708701854  0.4971360000000000
  H57   H 0.9246334613014159  0.9036887725610246  0.6015875672348892  0.1412610000000000
  H58   H 0.8173045665927674  0.6537091157604222  0.6484021293447985  0.1411810000000000
  H59   H 0.8173046040713816  0.5962908473453747  0.8984022037404615  0.1417250000000000
  H60   H 0.9246331597030647  0.8463110781143323  0.8515869603332575  0.1413510000000000
  H61   H 0.7347699955361858  0.8450679283444926  0.6638092625938886  0.1439650000000000
  H62   H 1.0071331178635368  0.5950677331792871  0.5861519543339998  0.1443430000000000
  H63   H 1.0071331163046078  0.6549321376209249  0.8361521880663400  0.1438870000000000
  H64   H 0.7347705080462393  0.9049326213006550  0.9138096086424299  0.1445150000000000