#calf20_pbe0-d3bj_DDEC6
_chemical_name_common                    'calf20_pbe0-d3bj'
_cell_length_a                           19.00031
_cell_length_b                           20.57008
_cell_length_c                           20.20762
_cell_angle_alpha                        90.00000
_cell_angle_beta                         116.37217
_cell_angle_gamma                        90.00001

_symmetry_cell_setting          triclinic
_symmetry_space_group_name_Hall 'P 1'
_symmetry_space_group_name_H-M  'P 1'
_symmetry_Int_Tables_number     1

_symmetry_equiv_pos_as_xyz 'x,y,z'

loop_
   _atom_site_label
   _atom_site_type_symbol
   _atom_site_fract_x
   _atom_site_fract_y
   _atom_site_fract_z
   _atom_site_charge
  Zn1  Zn 0.4592132508837694  0.0280803348342685  0.2182494651498227  0.5326490000000000
  Zn2  Zn 0.2835829990660558  0.2780774850267771  0.0318511234149701  0.5316550000000000
  Zn3  Zn 0.2835852054528396  0.4719221975640768  0.2818504152300481  0.5315900000000000
  Zn4  Zn 0.4592173297783603  0.2219204091796984  0.4682484390154773  0.5326740000000000
   N1   N 0.3883072824905306  0.4443199109091878  0.1840879896337835 -0.1434280000000000
   N2   N 0.3542120671984717  0.1943058674705256  0.0659351298484797 -0.1446000000000000
   N3   N 0.3542111847231645  0.0556934157980976  0.3159350368692522 -0.1444730000000000
   N4   N 0.3883066439334631  0.3056806299782851  0.4340876663882202 -0.1435910000000000
   N5   N 0.3255175440646627  0.4261362524291824  0.2047355011856289 -0.1506660000000000
   N6   N 0.4169421158804916  0.1760916536576990  0.0452253178724220 -0.1493600000000000
   N7   N 0.4169424451235412  0.0739084654050609  0.2952252880455574 -0.1496290000000000
   N8   N 0.3255176652118147  0.3238638513310600  0.4547352129522141 -0.1506740000000000
   N9   N 0.3214780674553037  0.3538375105224573  0.1121237534549972 -0.2467800000000000
  N10   N 0.4208648322496376  0.1037244289094727  0.1377573037683426 -0.2464960000000000
  N11   N 0.4208652807903263  0.1462749988206458  0.3877565295870217 -0.2465040000000000
  N12   N 0.3214783976882616  0.3961627950126239  0.3621232367331942 -0.2467240000000000
   O1   O 0.0741632243880856  0.0384481308887124  0.3054728734054343 -0.4236880000000000
   O2   O 0.1684922346141990  0.2880831328478228 -0.0551661291867378 -0.4216630000000000
   O3   O 0.1684930810458211 -0.0380830838259860  0.1948338045775543 -0.4218000000000000
   O4   O 0.0741632168970843  0.2115515943088193  0.0554731288347177 -0.4237790000000000
   O5   O 0.2090434048638828  0.0167190182315826  0.3398727870014942 -0.4289300000000000
   O6   O 0.0336316469186616  0.2666122454430073 -0.0893961245250979 -0.4282180000000000
   O7   O 0.0336319814562671 -0.0166124129382467  0.1606036517184783 -0.4281790000000000
   O8   O 0.2090435404178868  0.2332811187418691  0.0898727327538449 -0.4289680000000000
   C1   C 0.3833270866769730  0.4001483136736583  0.1288322567363838  0.1063570000000000
   C2   C 0.3591019584731439  0.1500953022379015  0.1211281048408013  0.1075730000000000
   C3   C 0.3591022277295973  0.0999046459557034  0.3711281495272731  0.1076140000000000
   C4   C 0.3833271651808388  0.3498519064735139  0.3788319428981637  0.1063550000000000
   C5   C 0.2878521083494583  0.3721428402938133  0.1605323563791170  0.1195910000000000
   C6   C 0.4545028140858626  0.1220367971350430  0.0893560002024235  0.1175620000000000
   C7   C 0.4545027812315240  0.1279634773037242  0.3393564450015008  0.1176370000000000
   C8   C 0.2878521672514510  0.3778569976923383  0.4105325287428265  0.1197430000000000
   C9   C 0.1332233548986489  0.0157369684005024  0.2913796779105475  0.3984840000000000
  C10   C 0.1094743075873739  0.2654930173349765 -0.0409514153241888  0.3953340000000000
  C11   C 0.1094742081537353 -0.0154927027057616  0.2090487380621387  0.3953880000000000
  C12   C 0.1332235365013207  0.2342632016706738  0.0413796342848590  0.3985220000000000
   H1   H 0.4253306709220150  0.4019001930956010  0.1016374406892967  0.1173700000000000
   H2   H 0.3170757400902457  0.1518723888753726  0.1482949697047253  0.1172560000000000
   H3   H 0.3170755684475693  0.0981271665978334  0.3982946508052248  0.1172990000000000
   H4   H 0.4253303448732678  0.3481001695326539  0.3516371312906711  0.1173360000000000
   H5   H 0.2356419508114632  0.3455946597899544  0.1629492695925288  0.1199100000000000
   H6   H 0.5066660314476177  0.0954361206525001  0.0869081548526404  0.1201710000000000
   H7   H 0.5066655913353990  0.1545637758101825  0.3369076765076945  0.1201270000000000
   H8   H 0.2356415464872778  0.4044056110861031  0.4129489184341411  0.1199490000000000
  Zn5  Zn 0.4592165063935194  0.0280800031526978  0.7182485517219777  0.5327110000000000
  Zn6  Zn 0.2835856535560288  0.2780779116590178  0.5318502436566934  0.5315790000000000
  Zn7  Zn 0.2835844254840891  0.4719221669069412  0.7818507441959054  0.5316370000000000
  Zn8  Zn 0.4592166047471629  0.2219204741757705  0.9682485435991167  0.5326240000000000
  N13   N 0.3883066308967006  0.4443192582127610  0.6840878499679353 -0.1434900000000000
  N14   N 0.3542112146216567  0.1943064825752643  0.5659346409480666 -0.1444390000000000
  N15   N 0.3542105503669092  0.0556932722754831  0.8159345466049746 -0.1444620000000000
  N16   N 0.3883068966976149  0.3056806018260519  0.9340879876920478 -0.1436090000000000
  N17   N 0.3255177787864128  0.4261361919737783  0.7047352792166853 -0.1505260000000000
  N18   N 0.4169413687645506  0.1760916575971969  0.5452251878783108 -0.1496930000000000
  N19   N 0.4169419666547475  0.0739083644634068  0.7952251294655014 -0.1497640000000000
  N20   N 0.3255178504411170  0.3238638371159295  0.9547354237944935 -0.1505350000000000
  N21   N 0.3214782773567516  0.3538370419498969  0.6121232009922727 -0.2468310000000000
  N22   N 0.4208653723662804  0.1037246948655850  0.6377566815389004 -0.2465320000000000
  N23   N 0.4208653568144936  0.1462754311648512  0.8877567984188103 -0.2464730000000000
  N24   N 0.3214780058541424  0.3961628477042473  0.8621233797921560 -0.2467790000000000
   O9   O 0.0741613512489487  0.0384490951945957  0.8054740479110815 -0.4237050000000000
  O10   O 0.1684926995224905  0.2880824635446499  0.4448349978534891 -0.4217420000000000
  O11   O 0.1684902787246456 -0.0380824577268685  0.6948347876792293 -0.4217980000000000
  O12   O 0.0741606072493632  0.2115513826660598  0.5554729211078900 -0.4237300000000000
  O13   O 0.2090411636848171  0.0167192106391311  0.8398718529785915 -0.4289880000000000
  O14   O 0.0336315042734987  0.2666126317967757  0.4106029144152573 -0.4281490000000000
  O15   O 0.0336292837640417 -0.0166119566535926  0.6606029996616244 -0.4281440000000000
  O16   O 0.2090409393787424  0.2332805082282265  0.5898728696476464 -0.4290050000000000
  C13   C 0.3833271143231943  0.4001479304225979  0.6288320137485022  0.1062800000000000
  C14   C 0.3591021480344504  0.1500954555597423  0.6211279599637517  0.1076580000000000
  C15   C 0.3591023409721566  0.0999050590894545  0.8711280826357085  0.1077520000000000
  C16   C 0.3833272723233338  0.3498517094392332  0.8788323223481572  0.1062770000000000
  C17   C 0.2878520485597605  0.3721428234269031  0.6605323584222129  0.1196830000000000
  C18   C 0.4545025616104338  0.1220365796102705  0.5893560812450365  0.1176120000000000
  C19   C 0.4545025988158259  0.1279635420555109  0.8393565277023335  0.1176010000000000
  C20   C 0.2878520448049852  0.3778570285205344  0.9105326216401243  0.1198060000000000
  C21   C 0.1332281667772370  0.0157361660642821  0.7913811301889061  0.3986480000000000
  C22   C 0.1094764741307899  0.2654932244850901  0.4590490962055579  0.3952720000000000
  C23   C 0.1094788845814031 -0.0154936728201571  0.7090500040481955  0.3952660000000000
  C24   C 0.1332255104596648  0.2342634842456562  0.5413804283305974  0.3986140000000000
   H9   H 0.4253304717220857  0.4018997667702013  0.6016371588880512  0.1172980000000000
  H10   H 0.3170753790434791  0.1518725899874399  0.6482953462049404  0.1173510000000000
  H11   H 0.3170749420473798  0.0981271918276864  0.8982949417804389  0.1173600000000000
  H12   H 0.4253305652255037  0.3481002032639508  0.8516372015262111  0.1172590000000000
  H13   H 0.2356414430204267  0.3455945720275095  0.6629489349324207  0.1199490000000000
  H14   H 0.5066652123872698  0.0954368457168428  0.5869071457959411  0.1200900000000000
  H15   H 0.5066652819669837  0.1545629036671293  0.8369070385795466  0.1200650000000000
  H16   H 0.2356417595298448  0.4044052204269969  0.9129490989683335  0.1200000000000000
  Zn9  Zn 0.4592173882670999  0.5280795500805658  0.2182490285575350  0.5326250000000000
 Zn10  Zn 0.2835848513876700  0.7780778001218321  0.0318517355224061  0.5316100000000000
 Zn11  Zn 0.2835821748039547  0.9719225692959064  0.2818509841701753  0.5316600000000000
 Zn12  Zn 0.4592163976712640  0.7219202310514449  0.4682490731313678  0.5326770000000000
  N25   N 0.3883071677013282  0.9443199043811120  0.1840884438587574 -0.1433040000000000
  N26   N 0.3542109264317370  0.6943063202802371  0.0659349161967384 -0.1445210000000000
  N27   N 0.3542110937490872  0.5556937165141149  0.3159349257372587 -0.1445290000000000
  N28   N 0.3883076407561183  0.8056800404627127  0.4340881552442562 -0.1436050000000000
  N29   N 0.3255185780954643  0.9261365448644283  0.2047354222453093 -0.1506140000000000
  N30   N 0.4169423502493196  0.6760914388676671  0.0452251115120199 -0.1492760000000000
  N31   N 0.4169416602796451  0.5739085352140643  0.2952251867177547 -0.1497340000000000
  N32   N 0.3255177384758243  0.8238638935706082  0.4547355308670992 -0.1507580000000000
  N33   N 0.3214781445112606  0.8538373704077443  0.1121236218937102 -0.2468230000000000
  N34   N 0.4208654891428893  0.6037245790258041  0.1377567847218036 -0.2465260000000000
  N35   N 0.4208651855967944  0.6462754449234033  0.3877568203845759 -0.2464720000000000
  N36   N 0.3214781450729969  0.8961625217322942  0.3621236906337575 -0.2466730000000000
  O17   O 0.0741616207634675  0.5384486337693272  0.3054733762655445 -0.4237130000000000
  O18   O 0.1684907320847371  0.7880828856514183 -0.0551659104982670 -0.4216010000000000
  O19   O 0.1684922320193910  0.4619171773934452  0.1948345351211617 -0.4217560000000000
  O20   O 0.0741629413643803  0.7115511772674264  0.0554737802880546 -0.4238520000000000
  O21   O 0.2090418619769376  0.5167191942192073  0.3398726802482071 -0.4289950000000000
  O22   O 0.0336299186749566  0.7666120234702218 -0.0893965080531420 -0.4281980000000000
  O23   O 0.0336310887053825  0.4833876196089086  0.1606032158043324 -0.4281890000000000
  O24   O 0.2090426956874644  0.7332812368993397  0.0898719394408379 -0.4289930000000000
  C25   C 0.3833270060509946  0.9001480415757988  0.1288321308191090  0.1063670000000000
  C26   C 0.3591022129069401  0.6500951956914653  0.1211279656199118  0.1075940000000000
  C27   C 0.3591020715271339  0.5999047415676151  0.3711281090117002  0.1076260000000000
  C28   C 0.3833271234846977  0.8498517968432547  0.3788322585900074  0.1063520000000000
  C29   C 0.2878522528647638  0.8721426782846646  0.1605321070893535  0.1195050000000000
  C30   C 0.4545028272366431  0.6220364677231085  0.0893563311877762  0.1174150000000000
  C31   C 0.4545025260416743  0.6279635795820092  0.3393562147889529  0.1177250000000000
  C32   C 0.2878521918616689  0.8778571520887415  0.4105324162920435  0.1197700000000000
  C33   C 0.1332255202759275  0.5157364572904439  0.2913802812833676  0.3986330000000000
  C34   C 0.1094768655910151  0.7654933447032809 -0.0409506889494159  0.3953110000000000
  C35   C 0.1094760835491502  0.4845068820456804  0.2090493127517963  0.3952870000000000
  C36   C 0.1332261039066582  0.7342634319431168  0.0413803516326664  0.3985670000000000
  H17   H 0.4253311222340258  0.9018998976399494  0.1016368663729238  0.1173550000000000
  H18   H 0.3170754878861035  0.6518726262627027  0.1482948570828904  0.1172740000000000
  H19   H 0.3170753901570509  0.5981274902557016  0.3982952597977772  0.1172920000000000
  H20   H 0.4253308505756958  0.8480998587720243  0.3516373770222140  0.1173300000000000
  H21   H 0.2356420400587924  0.8455952458418999  0.1629495360148912  0.1199070000000000
  H22   H 0.5066654730879928  0.5954365298436902  0.0869074327724018  0.1201830000000000
  H23   H 0.5066652766826170  0.6545633363152275  0.3369074063795142  0.1201410000000000
  H24   H 0.2356420843641630  0.9044051143323900  0.4129492592346025  0.1199910000000000
 Zn13  Zn 0.4592164445641362  0.5280797297286768  0.7182483507745765  0.5326230000000000
 Zn14  Zn 0.2835847162037430  0.7780777729319638  0.5318504300851545  0.5315060000000000
 Zn15  Zn 0.2835872858411841  0.9719216639378696  0.7818511648100623  0.5316320000000000
 Zn16  Zn 0.4592153927230830  0.7219198400985027  0.9682487536772543  0.5326070000000001
  N37   N 0.3883066238833026  0.9443198044298926  0.6840879540255859 -0.1434140000000000
  N38   N 0.3542108909298214  0.6943066632774634  0.5659348697765266 -0.1443680000000000
  N39   N 0.3542116223789530  0.5556936310934120  0.8159347508180829 -0.1445420000000000
  N40   N 0.3883060264904660  0.8056804384645866  0.9340881033508335 -0.1436450000000000
  N41   N 0.3255168692369131  0.9261365867278714  0.7047354047930670 -0.1504430000000000
  N42   N 0.4169418003274268  0.6760916118657302  0.5452252520017251 -0.1496160000000000
  N43   N 0.4169417977716112  0.5739081650425977  0.7952252507021643 -0.1498300000000000
  N44   N 0.3255175888729946  0.8238631343347429  0.9547352241463980 -0.1505490000000000
  N45   N 0.3214783306434610  0.8538372616603053  0.6121233552423568 -0.2468040000000000
  N46   N 0.4208651799413052  0.6037247956675618  0.6377566883697242 -0.2464970000000000
  N47   N 0.4208650656005776  0.6462753398418311  0.8877568126684046 -0.2464360000000000
  N48   N 0.3214783544410865  0.8961628868102951  0.8621231164529559 -0.2467120000000000
  O25   O 0.0741618700144451  0.5384485840798036  0.8054730152959785 -0.4236080000000000
  O26   O 0.1684924664791979  0.7880826996151535  0.4448345503402895 -0.4217020000000000
  O27   O 0.1684924580689361  0.4619171995011542  0.6948345056440778 -0.4219150000000000
  O28   O 0.0741615152388022  0.7115515421805123  0.5554731963769840 -0.4237380000000000
  O29   O 0.2090420665035365  0.5167192045044592  0.8398727851353268 -0.4290020000000000
  O30   O 0.0336313576880492  0.7666123916951968  0.4106031970101686 -0.4281370000000000
  O31   O 0.0336315142224766  0.4833876072254037  0.6606033334255403 -0.4281830000000000
  O32   O 0.2090419229085579  0.7332806281369859  0.5898727805779767 -0.4289690000000000
  C37   C 0.3833268825453509  0.9001479605967301  0.6288321518746457  0.1062960000000000
  C38   C 0.3591021549625557  0.6500952771567368  0.6211281772031436  0.1076560000000000
  C39   C 0.3591021276043412  0.5999047356518910  0.8711280680587817  0.1077510000000000
  C40   C 0.3833269208908207  0.8498520355259719  0.8788321167291261  0.1062490000000000
  C41   C 0.2878518963029157  0.8721430290739869  0.6605321130405595  0.1195620000000000
  C42   C 0.4545024719056658  0.6220365164868574  0.5893563893711217  0.1175390000000000
  C43   C 0.4545026735305133  0.6279633173727009  0.8393561630976226  0.1176920000000000
  C44   C 0.2878518552575556  0.8778569219760080  0.9105321234932917  0.1198160000000000
  C45   C 0.1332247602021895  0.5157366642424465  0.7913802083542435  0.3985830000000000
  C46   C 0.1094759446810084  0.7654931119653446  0.4590491961371055  0.3953040000000000
  C47   C 0.1094755812938411  0.4845068658727535  0.7090489530928512  0.3953630000000000
  C48   C 0.1332250654339723  0.7342634866558708  0.5413802078671918  0.3985320000000000
  H25   H 0.4253306730447367  0.9019002424946363  0.6016379206447470  0.1172900000000000
  H26   H 0.3170751603799664  0.6518727488220875  0.6482950714779029  0.1173290000000000
  H27   H 0.3170754428423818  0.5981274027330321  0.8982950049926509  0.1173590000000000
  H28   H 0.4253307505344969  0.8481001012615111  0.8516374531318740  0.1172670000000000
  H29   H 0.2356411140198692  0.8455944363973844  0.6629489303208290  0.1199400000000000
  H30   H 0.5066652429249320  0.5954367992272260  0.5869073212800315  0.1200480000000000
  H31   H 0.5066656049295395  0.6545635148373031  0.8369075382230803  0.1200670000000000
  H32   H 0.2356409516170061  0.9044053443492751  0.9129489458448488  0.1200360000000000
 Zn17  Zn 0.9592128894747084  0.0280802999609355  0.2182490055688465  0.5326520000000000
 Zn18  Zn 0.7835852007709638  0.2780780587692265  0.0318515664989469  0.5316760000000000
 Zn19  Zn 0.7835862914590750  0.4719218272975710  0.2818510431211057  0.5315980000000000
 Zn20  Zn 0.9592160475564803  0.2219199740536266  0.4682494053976826  0.5326660000000000
  N49   N 0.8883065043992314  0.4443197968763701  0.1840882405084767 -0.1434350000000000
  N50   N 0.8542121364953587  0.1943061827333489  0.0659348877081079 -0.1446240000000000
  N51   N 0.8542117346702325  0.0556937844116218  0.3159350382935842 -0.1445210000000000
  N52   N 0.8883063045509949  0.3056800996821029  0.4340882072286756 -0.1435370000000000
  N53   N 0.8255179190575854  0.4261367599509157  0.2047351882526101 -0.1506230000000000
  N54   N 0.9169421882845968  0.1760920456605402  0.0452256379833927 -0.1493380000000000
  N55   N 0.9169423789407293  0.0739084040316960  0.2952254396232062 -0.1495490000000000
  N56   N 0.8255177437290284  0.3238631332602598  0.4547352189867711 -0.1506990000000000
  N57   N 0.8214783428971781  0.3538373896197253  0.1121234314343238 -0.2467930000000000
  N58   N 0.9208649733544643  0.1037244611802696  0.1377571889034062 -0.2464700000000000
  N59   N 0.9208650277205981  0.1462754175812484  0.3877570131329062 -0.2464950000000000
  N60   N 0.8214785946920693  0.3961625882681233  0.3621233583751469 -0.2467060000000000
  O33   O 0.5741626370918739  0.0384482769547626  0.3054726026800080 -0.4236940000000000
  O34   O 0.6684911271584171  0.2880828242053642 -0.0551657321766873 -0.4216370000000000
  O35   O 0.6684935707525356 -0.0380830955088749  0.1948340763702365 -0.4217730000000000
  O36   O 0.5741628509589939  0.2115513792702151  0.0554738545176485 -0.4238060000000000
  O37   O 0.7090434519316423  0.0167191669037114  0.3398732586141994 -0.4289220000000000
  O38   O 0.5336306648464455  0.2666119693059225 -0.0893962618056083 -0.4282500000000000
  O39   O 0.5336330145792622 -0.0166125906397418  0.1606037390383839 -0.4281750000000000
  O40   O 0.7090430917221456  0.2332809292975913  0.0898722317471984 -0.4289470000000000
  C49   C 0.8833270162158271  0.4001480534751865  0.1288321882361566  0.1063590000000000
  C50   C 0.8591022413480263  0.1500949014009189  0.1211282487692769  0.1075420000000000
  C51   C 0.8591021053778513  0.0999047568688124  0.3711280571046693  0.1075850000000000
  C52   C 0.8833270004651927  0.3498520102163857  0.3788320042924388  0.1063190000000000
  C53   C 0.7878519704772130  0.3721430518127319  0.1605321276612214  0.1195520000000000
  C54   C 0.9545028987859702  0.1220367254859920  0.0893566981216187  0.1175720000000000
  C55   C 0.9545028513169830  0.1279632235311419  0.3393562279932779  0.1176130000000000
  C56   C 0.7878521194224865  0.3778568383452361  0.4105321288270779  0.1197320000000000
  C57   C 0.6332233197850454  0.0157367254783846  0.2913792852405386  0.3984740000000000
  C58   C 0.6094765602132082  0.2654933179274094 -0.0409510089641882  0.3953460000000000
  C59   C 0.6094740621962557 -0.0154929910168573  0.2090481667231565  0.3953590000000000
  C60   C 0.6332258602482954  0.2342634322012850  0.0413801392478629  0.3985070000000000
  H33   H 0.9253309279937025  0.4018999745128176  0.1016375821324619  0.1173820000000000
  H34   H 0.8170752539910660  0.1518724947852269  0.1482946034034607  0.1172580000000000
  H35   H 0.8170755975321167  0.0981273239115831  0.3982945220372889  0.1172930000000000
  H36   H 0.9253308909581188  0.3480998717584214  0.3516376777519968  0.1173490000000000
  H37   H 0.7356413473889675  0.3455948550474341  0.1629490484047571  0.1199150000000000
  H38   H 1.0066662921014158  0.0954365250449078  0.0869078831628425  0.1201780000000000
  H39   H 1.0066660383778663  0.1545637289574597  0.3369079651790439  0.1201480000000000
  H40   H 0.7356412365002231  0.4044051558463192  0.4129489695963777  0.1199480000000000
 Zn21  Zn 0.9592189087099109  0.0280793153355310  0.7182483094324406  0.5326850000000000
 Zn22  Zn 0.7835860517068456  0.2780780119757410  0.5318512928623624  0.5315640000000000
 Zn23  Zn 0.7835849350616569  0.4719221196793363  0.7818513615279562  0.5316080000000000
 Zn24  Zn 0.9592139857508361  0.2219195605115514  0.9682483837436088  0.5325920000000000
  N61   N 0.8883064302866407  0.4443196557482212  0.6840883001410073 -0.1434940000000000
  N62   N 0.8542101757790403  0.1943067353629056  0.5659345618036650 -0.1444720000000000
  N63   N 0.8542117698821208  0.0556940450727659  0.8159346447810599 -0.1444220000000000
  N64   N 0.8883067081141023  0.3056802192328770  0.9340884746941513 -0.1435450000000000
  N65   N 0.8255178376657648  0.4261367214936471  0.7047352583237472 -0.1505140000000000
  N66   N 0.9169415254256567  0.1760912872354734  0.5452252301966457 -0.1496660000000000
  N67   N 0.9169409583911712  0.0739081853925126  0.7952253796487482 -0.1497520000000000
  N68   N 0.8255178479069234  0.3238632839664045  0.9547353063144048 -0.1505550000000000
  N69   N 0.8214783408029162  0.3538372427031074  0.6121231714980170 -0.2468230000000000
  N70   N 0.9208653506413144  0.1037248106887172  0.6377564433619669 -0.2465470000000000
  N71   N 0.9208651427203205  0.1462755355425920  0.8877570455208117 -0.2464420000000000
  N72   N 0.8214782347786214  0.3961627260056846  0.8621233946725484 -0.2467400000000000
  O41   O 0.5741621552145065  0.0384488082397324  0.8054734739159111 -0.4236520000000000
  O42   O 0.6684913498557346  0.2880826524861772  0.4448345176614785 -0.4217140000000000
  O43   O 0.6684919054068134 -0.0380827659478059  0.6948344064536301 -0.4218290000000000
  O44   O 0.5741622126295931  0.2115511854019266  0.5554736470805390 -0.4237070000000000
  O45   O 0.7090428197080816  0.0167191231033167  0.8398730703121886 -0.4289630000000000
  O46   O 0.5336307713927514  0.2666121715873795  0.4106037272518576 -0.4281460000000000
  O47   O 0.5336314808915829 -0.0166121759505517  0.6606039049645340 -0.4281560000000000
  O48   O 0.7090426000962211  0.2332809107011697  0.5898725826693872 -0.4289280000000000
  C61   C 0.8833270731981085  0.4001480659856251  0.6288322398700482  0.1062950000000000
  C62   C 0.8591022208210833  0.1500949647448294  0.6211281613911674  0.1076810000000000
  C63   C 0.8591018965594229  0.0999047336741934  0.8711279948370341  0.1076900000000000
  C64   C 0.8833269440699573  0.3498521712548380  0.8788321850392061  0.1062260000000000
  C65   C 0.7878519762585527  0.3721432119129305  0.6605322724271970  0.1196530000000000
  C66   C 0.9545024194621416  0.1220364327060538  0.5893562784504760  0.1176380000000000
  C67   C 0.9545026988698663  0.1279633990308028  0.8393561930460831  0.1175880000000000
  C68   C 0.7878519606684216  0.3778569326285968  0.9105321483960229  0.1197900000000000
  C69   C 0.6332246974749629  0.0157365269766969  0.7913799641932899  0.3985490000000000
  C70   C 0.6094769601804040  0.2654934189278538  0.4590492791103775  0.3952790000000000
  C71   C 0.6094753130156001 -0.0154931720810307  0.7090489295445306  0.3953040000000000
  C72   C 0.6332260878961423  0.2342635652083739  0.5413803140320032  0.3984930000000000
  H41   H 0.9253308948799943  0.4018998810012756  0.6016375489335626  0.1173100000000000
  H42   H 0.8170750074219350  0.1518726677475304  0.6482950428927717  0.1173270000000000
  H43   H 0.8170752685765348  0.0981278934869904  0.8982953536281965  0.1173520000000000
  H44   H 0.9253309695406693  0.3481000745912997  0.8516375476769248  0.1172800000000000
  H45   H 0.7356412351967366  0.3455948724258374  0.6629488985117695  0.1199450000000000
  H46   H 1.0066648200973138  0.0954372517728892  0.5869069725776238  0.1200880000000000
  H47   H 1.0066655845647547  0.1545630847316574  0.8369076103589647  0.1200810000000000
  H48   H 0.7356414157578887  0.4044049670280991  0.9129491780319425  0.1199940000000000
 Zn25  Zn 0.9592162775596529  0.5280800979963632  0.2182489017758338  0.5326100000000000
 Zn26  Zn 0.7835841052926016  0.7780777122247187  0.0318509289496860  0.5316550000000000
 Zn27  Zn 0.7835826789071200  0.9719224074414496  0.2818508189868533  0.5316580000000000
 Zn28  Zn 0.9592155030479543  0.7219200621486006  0.4682491016725888  0.5326930000000000
  N73   N 0.8883073019565327  0.9443196524620282  0.1840882076252884 -0.1432940000000000
  N74   N 0.8542116565635011  0.6943061987831132  0.0659347073393250 -0.1445830000000000
  N75   N 0.8542112518068202  0.5556937314701063  0.3159347208674053 -0.1445730000000000
  N76   N 0.8883071732456470  0.8056801927659951  0.4340880937573143 -0.1435830000000000
  N77   N 0.8255184148879978  0.9261362702980088  0.2047353578174258 -0.1506270000000000
  N78   N 0.9169418185218996  0.6760917887899978  0.0452252464526347 -0.1492210000000000
  N79   N 0.9169414884086621  0.5739083765301849  0.2952254322152253 -0.1496370000000000
  N80   N 0.8255179095762840  0.8238636733088244  0.4547352962814897 -0.1507540000000000
  N81   N 0.8214782243707670  0.8538370744762283  0.1121233553312629 -0.2468500000000000
  N82   N 0.9208652672405135  0.6037245764309773  0.1377568055814646 -0.2465000000000000
  N83   N 0.9208651272741604  0.6462755390473545  0.3877569261404476 -0.2464780000000000
  N84   N 0.8214780760728300  0.8961626331179950  0.3621237116122205 -0.2466660000000000
  O49   O 0.5741617088722015  0.5384486960505833  0.3054736138162333 -0.4237110000000000
  O50   O 0.6684922795946595  0.7880830155974435 -0.0551660361567510 -0.4216120000000000
  O51   O 0.6684918285999257  0.4619173416157823  0.1948347288224411 -0.4217530000000000
  O52   O 0.5741629810347125  0.7115514444121723  0.0554733801073743 -0.4238220000000000
  O53   O 0.7090421192533141  0.5167192898190769  0.3398726581802732 -0.4289650000000000
  O54   O 0.5336318463968149  0.7666122685622975 -0.0893959238512832 -0.4281990000000000
  O55   O 0.5336309983431521  0.4833877911265602  0.1606033746852160 -0.4282190000000000
  O56   O 0.7090435618579959  0.7332811083015670  0.0898730224344220 -0.4289700000000000
  C73   C 0.8833272042696524  0.9001480222754410  0.1288321794236980  0.1063580000000000
  C74   C 0.8591021220170469  0.6500952168776953  0.1211279187101622  0.1075780000000000
  C75   C 0.8591020523130968  0.5999049560469840  0.3711281073982020  0.1076210000000000
  C76   C 0.8833271092831624  0.8498518942071508  0.3788321901365505  0.1063180000000000
  C77   C 0.7878523729880487  0.8721428763893113  0.1605324446423059  0.1195300000000000
  C78   C 0.9545028399057459  0.6220365938420886  0.0893562900878615  0.1173930000000000
  C79   C 0.9545025375695035  0.6279634732784305  0.3393563940089541  0.1177030000000000
  C80   C 0.7878521401861731  0.8778571856085214  0.4105322118831401  0.1197580000000000
  C81   C 0.6332259958386804  0.5157363400005998  0.2913802422996997  0.3985710000000000
  C82   C 0.6094746824047073  0.7654930367997200 -0.0409513374216835  0.3953250000000000
  C83   C 0.6094767984756166  0.4845066471451696  0.2090492370756448  0.3953360000000000
  C84   C 0.6332242686376189  0.7342633840684251  0.0413796975226288  0.3985070000000000
  H49   H 0.9253310739537769  0.9018998526258181  0.1016369908195707  0.1173680000000000
  H50   H 0.8170753652038329  0.6518724832133899  0.1482947289133192  0.1172530000000000
  H51   H 0.8170751362965460  0.5981275912739543  0.3982950686472478  0.1172860000000000
  H52   H 0.9253308652592276  0.8480999874436531  0.3516374277708564  0.1173490000000000
  H53   H 0.7356421732060213  0.8455952998181063  0.1629495493813808  0.1198940000000000
  H54   H 1.0066657054088590  0.5954366616229227  0.0869076389513517  0.1201960000000000
  H55   H 1.0066654786349301  0.6545631044184911  0.3369074358681048  0.1201490000000000
  H56   H 0.7356419480861601  0.9044049849826705  0.4129493771858839  0.1199830000000000
 Zn29  Zn 0.9592152127224475  0.5280801196676016  0.7182489052856623  0.5326280000000000
 Zn30  Zn 0.7835854783632392  0.7780781020912091  0.5318506907461176  0.5315490000000000
 Zn31  Zn 0.7835853613704509  0.9719220643732357  0.7818506575951302  0.5316250000000000
 Zn32  Zn 0.9592164721145056  0.7219202608295259  0.9682482583385348  0.5326490000000000
  N85   N 0.8883060958602239  0.9443190881050075  0.6840876576337495 -0.1433980000000000
  N86   N 0.8542113914995619  0.6943063212552381  0.5659347947829306 -0.1443990000000000
  N87   N 0.8542111073471435  0.5556935799813942  0.8159348215847170 -0.1445720000000000
  N88   N 0.8883066522554892  0.8056805953659785  0.9340879793502034 -0.1436700000000000
  N89   N 0.8255177865651182  0.9261364860895347  0.7047352241380582 -0.1504240000000000
  N90   N 0.9169415222882921  0.6760917140173295  0.5452254371510717 -0.1496130000000000
  N91   N 0.9169419373897321  0.5739084060757388  0.7952254307375085 -0.1498010000000000
  N92   N 0.8255177924870706  0.8238634943565450  0.9547353010703223 -0.1505470000000000
  N93   N 0.8214783187881175  0.8538372122321681  0.6121233283202702 -0.2468490000000000
  N94   N 0.9208648827255065  0.6037245291045567  0.6377569479984361 -0.2465240000000000
  N95   N 0.9208652499529757  0.6462753674357977  0.8877568783102000 -0.2464630000000000
  N96   N 0.8214784393814836  0.8961628704008923  0.8621232318886431 -0.2466920000000000
  O57   O 0.5741628626961645  0.5384486796479409  0.8054737179888734 -0.4235820000000000
  O58   O 0.6684924320462684  0.7880828405899256  0.4448348862371530 -0.4217210000000000
  O59   O 0.6684912139004785  0.4619171071600106  0.6948340925666341 -0.4218790000000000
  O60   O 0.5741613913726342  0.7115512437907655  0.5554731915466766 -0.4237460000000000
  O61   O 0.7090432580147283  0.5167189244125470  0.8398724374950087 -0.4289500000000000
  O62   O 0.5336318138771191  0.7666123081651849  0.4106033576052908 -0.4281410000000000
  O63   O 0.5336308227604513  0.4833879456698243  0.6606038473615518 -0.4281950000000000
  O64   O 0.7090421067410766  0.7332805768506276  0.5898730518198956 -0.4289560000000000
  C85   C 0.8833274174751961  0.9001483494491760  0.6288322704031860  0.1062930000000000
  C86   C 0.8591021460867115  0.6500949066233237  0.6211283165212713  0.1076610000000000
  C87   C 0.8591021148691405  0.5999048551167865  0.8711280797344499  0.1077470000000000
  C88   C 0.8833272708233220  0.8498520523235074  0.8788321295002303  0.1062710000000000
  C89   C 0.7878519245179687  0.8721430663354415  0.6605324911076838  0.1195520000000000
  C90   C 0.9545025416937254  0.6220365050826292  0.5893564450865348  0.1175670000000000
  C91   C 0.9545027113655120  0.6279632980620218  0.8393563152956190  0.1177190000000000
  C92   C 0.7878520586276561  0.8778569464290036  0.9105323662862715  0.1197940000000000
  C93   C 0.6332254292940558  0.5157364706252044  0.7913799665926498  0.3985040000000000
  C94   C 0.6094761358101716  0.7654932977382406  0.4590489205295958  0.3953150000000000
  C95   C 0.6094760599115120  0.4845066757487861  0.7090489693658861  0.3953590000000000
  C96   C 0.6332252601745683  0.7342635171976586  0.5413800295240752  0.3985210000000000
  H57   H 0.9253302892157239  0.9018995857616338  0.6016374151705833  0.1172960000000000
  H58   H 0.8170751990166139  0.6518724975975894  0.6482950637801038  0.1173290000000000
  H59   H 0.8170751942848304  0.5981274534478375  0.8982948432691201  0.1173570000000000
  H60   H 0.9253307474052963  0.8481002536653813  0.8516374803349637  0.1172610000000000
  H61   H 0.7356412712591910  0.8455943756788605  0.6629485816281245  0.1199330000000000
  H62   H 1.0066655819134602  0.5954367892926046  0.5869074922955296  0.1200530000000000
  H63   H 1.0066655203487531  0.6545631977641010  0.8369075236325999  0.1200660000000000
  H64   H 0.7356415288855612  0.9044051944492607  0.9129488980656666  0.1200240000000000