#squcalf20_pbe-d3bj_DDEC6
_chemical_name_common                    'squcalf20_pbe-d3bj'
_cell_length_a                           20.90418
_cell_length_b                           20.19467
_cell_length_c                           19.94064
_cell_angle_alpha                        89.99010
_cell_angle_beta                         121.36883
_cell_angle_gamma                        90.01026

_symmetry_cell_setting          triclinic
_symmetry_space_group_name_Hall 'P 1'
_symmetry_space_group_name_H-M  'P 1'
_symmetry_Int_Tables_number     1

_symmetry_equiv_pos_as_xyz 'x,y,z'

loop_
   _atom_site_label
   _atom_site_type_symbol
   _atom_site_fract_x
   _atom_site_fract_y
   _atom_site_fract_z
   _atom_site_charge
   C1   C  0.3363634829077052  0.4148853101744106  0.1238705503428363  0.1561770000000000
   C2   C  0.3135055838346812  0.1648447189843809  0.1200256618186123  0.1566030000000000
   C3   C  0.3135315006731640  0.0867258864343564  0.3704073498606492  0.1570090000000000
   C4   C  0.3362765435081347  0.3367190162558094  0.3734411259821095  0.1577440000000000
   C5   C  0.2639436538607371  0.3698580600204873  0.1567680943110731  0.1653370000000000
   C6   C  0.3858763852160916  0.1198376581109095  0.0870694336094051  0.1647490000000000
   C7   C  0.3856371305688466  0.1319501084740785  0.3372199351526388  0.1639470000000000
   C8   C  0.2640752036576489  0.3818073449329218  0.4065642401478297  0.1644070000000000
   C9   C  0.1234370437111935  0.0075458641003720  0.3041443945893741  0.1597820000000000
  C10   C  0.1079360480548794  0.2674203803549161 -0.0243631862557821  0.1693440000000000
  C11   C  0.1078543495851485 -0.0164959368927423  0.2270223273481893  0.1660750000000000
  C12   C  0.1235544375663994  0.2429150475645301  0.0525559001322074  0.1598140000000000
  C13   C  0.0422934186685396  0.2328849544696808  0.0173575342607575  0.1686100000000000
  C14   C  0.0266663672170333  0.2573812579216450 -0.0595853704259499  0.1597430000000000
  C15   C  0.0421550493356437  0.0175817140695082  0.2688333282882278  0.1693700000000000
  C16   C  0.0265916349471383 -0.0066322734806047  0.1918696898402134  0.1610000000000000
  C17   C  0.3363644931001901  0.4148834105527791  0.6238708036810586  0.1562090000000000
  C18   C  0.3135061754868709  0.1648416384631296  0.6200273723321597  0.1565480000000000
  C19   C  0.3135300624093242  0.0867253767902824  0.8704046805345035  0.1569360000000000
  C20   C  0.3362743321366913  0.3367189564661745  0.8734360028355335  0.1577160000000000
  C21   C  0.2639445565020886  0.3698585747865539  0.6567687705137220  0.1653290000000000
  C22   C  0.3858767487585945  0.1198360013814744  0.5870708213250192  0.1646590000000000
  C23   C  0.3856398593437677  0.1319461515008301  0.8372205776253626  0.1639480000000000
  C24   C  0.2640763010397110  0.3818088579645484  0.9065619284737922  0.1644450000000000
  C25   C  0.1234343132815386  0.0075470369905306  0.8041403079506597  0.1595200000000000
  C26   C  0.1079351212753421  0.2674191925126556  0.4756358619327782  0.1692420000000000
  C27   C  0.1078599411438631 -0.0164874708272265  0.7270151642029311  0.1663810000000000
  C28   C  0.1235587987310085  0.2429141561133190  0.5525558877237658  0.1599400000000000
  C29   C  0.0422932053948991  0.2328838677893880  0.5173572479668787  0.1685120000000000
  C30   C  0.0266702251216084  0.2573825601595918  0.4404157835819451  0.1598170000000000
  C31   C  0.0421491036971698  0.0175851094255032  0.7688338213623124  0.1695770000000000
  C32   C  0.0265953542028002 -0.0066249524751365  0.6918676844625947  0.1606650000000000
  C33   C  0.3363617270963031  0.9148854338451224  0.1238705463920218  0.1561880000000000
  C34   C  0.3135064797767904  0.6648445434043881  0.1200274278145906  0.1565100000000000
  C35   C  0.3135306070337036  0.5867257050611243  0.3704065686007671  0.1570320000000000
  C36   C  0.3362760971161508  0.8367185571209126  0.3734402616531599  0.1577940000000000
  C37   C  0.2639425190104123  0.8698580441395832  0.1567687595245865  0.1652260000000000
  C38   C  0.3858766619184344  0.6198375026816300  0.0870705451107941  0.1647670000000000
  C39   C  0.3856382482985177  0.6319484480126802  0.3372200706553903  0.1636910000000000
  C40   C  0.2640761694067462  0.8818087893170059  0.4065645829168322  0.1643020000000000
  C41   C  0.1234325800305376  0.5075468073453370  0.3041384290926706  0.1596590000000000
  C42   C  0.1079372018010971  0.7674201245074281 -0.0243624514280285  0.1693380000000000
  C43   C  0.1078555801289212  0.4835114617643317  0.2270203729453564  0.1663740000000000
  C44   C  0.1235555437269089  0.7429145023825541  0.0525560353160666  0.1599290000000000
  C45   C  0.0422951375637069  0.7328845324789683  0.0173582735887912  0.1684880000000000
  C46   C  0.0266678617731443  0.7573813907075091 -0.0595841572915669  0.1597100000000000
  C47   C  0.0421543190421586  0.5175835191686956  0.2688324874124908  0.1694700000000000
  C48   C  0.0265983442633511  0.4933736425729083  0.1918736757470214  0.1607760000000000
  C49   C  0.3363637633522005  0.9148819750726158  0.6238694374757080  0.1563110000000000
  C50   C  0.3135042950429093  0.6648427282393207  0.6200241314085989  0.1564770000000000
  C51   C  0.3135316435097607  0.5867268275483756  0.8704057216202536  0.1569670000000000
  C52   C  0.3362774486114497  0.8367197579349984  0.8734404274898202  0.1577230000000000
  C53   C  0.2639430263368139  0.8698573821941291  0.6567672622028784  0.1652500000000000
  C54   C  0.3858755050708791  0.6198364834528215  0.5870685366261070  0.1647070000000000
  C55   C  0.3856398352001865  0.6319502575753869  0.8372205483367195  0.1638770000000000
  C56   C  0.2640764033588543  0.8818074548755311  0.9065636153709662  0.1643840000000000
  C57   C  0.1234302457628410  0.5075458206053095  0.8041357417967213  0.1596840000000000
  C58   C  0.1079325228397914  0.7674195942171759  0.4756346195907059  0.1693210000000000
  C59   C  0.1078544370631772  0.4835108339982883  0.7270208366067761  0.1664100000000000
  C60   C  0.1235556251771913  0.7429147445883044  0.5525540001595772  0.1598850000000000
  C61   C  0.0422912358230888  0.7328845562224160  0.5173563546599091  0.1685070000000000
  C62   C  0.0266673359269163  0.7573822329481306  0.4404144053482956  0.1598150000000000
  C63   C  0.0421547594831683  0.5175800157631099  0.7688318531460118  0.1695120000000000
  C64   C  0.0266002465470446  0.4933703951108637  0.6918762056149232  0.1608460000000000
  C65   C  0.8363619756664840  0.4148852174972316  0.1238697725556068  0.1561800000000000
  C66   C  0.8135040744218853  0.1648461090514316  0.1200242314949412  0.1565560000000000
  C67   C  0.8135311380337528  0.0867271447715415  0.3704070158225457  0.1569880000000000
  C68   C  0.8362764239477732  0.3367184664637661  0.3734410397152761  0.1577230000000000
  C69   C  0.7639427748131963  0.3698586757753233  0.1567673276101634  0.1652850000000000
  C70   C  0.8858758706869829  0.1198378712265086  0.0870689843169712  0.1647690000000000
  C71   C  0.8856373920482415  0.1319508705357036  0.3372203268827562  0.1638570000000000
  C72   C  0.7640748949622453  0.3818069406976299  0.4065651364973866  0.1643670000000000
  C73   C  0.6234341637708829  0.0075440903279079  0.3041413018914887  0.1597170000000000
  C74   C  0.6079340826242969  0.2674207497312708 -0.0243640890261917  0.1692270000000000
  C75   C  0.6078552980464378 -0.0164970140870486  0.2270215194350061  0.1661880000000000
  C76   C  0.6235566162299303  0.2429159383980555  0.0525563177451943  0.1598500000000000
  C77   C  0.5422911516250214  0.2328856469987999  0.0173550756189537  0.1685100000000000
  C78   C  0.5266688429848686  0.2573825205363974 -0.0595857963671166  0.1598000000000000
  C79   C  0.5421533309040882  0.0175801236858540  0.2688315669067665  0.1693430000000000
  C80   C  0.5265954544613732 -0.0066328266297296  0.1918720298341335  0.1609360000000000
  C81   C  0.8363602247993169  0.4148816633407343  0.6238696305213609  0.1563330000000000
  C82   C  0.8135044601904765  0.1648416410679196  0.6200251964091610  0.1565210000000000
  C83   C  0.8135291950814738  0.0867264508217867  0.8704060854608593  0.1569830000000000
  C84   C  0.8362764597344631  0.3367184193647066  0.8734399405862784  0.1577250000000000
  C85   C  0.7639408863341324  0.3698557734021983  0.6567669094594076  0.1651000000000000
  C86   C  0.8858773686213014  0.1198374699173419  0.5870698921172179  0.1647400000000000
  C87   C  0.8856375237039408  0.1319467890611378  0.8372197116929804  0.1639360000000000
  C88   C  0.7640782543062136  0.3818100215617242  0.9065661101610640  0.1644210000000000
  C89   C  0.6234310941025121  0.0075455317861705  0.8041366999326505  0.1596660000000000
  C90   C  0.6079360431440327  0.2674183011004907  0.4756369028692561  0.1693100000000000
  C91   C  0.6078538519611150 -0.0164909055154532  0.7270203711172242  0.1664550000000000
  C92   C  0.6235569639199656  0.2429118504372025  0.5525560790283686  0.1598670000000000
  C93   C  0.5422942858199049  0.2328829320131245  0.5173580466497626  0.1684920000000000
  C94   C  0.5266677090079322  0.2573813990672746  0.4404154746579609  0.1597900000000000
  C95   C  0.5421549933248394  0.0175823397878139  0.7688330673765490  0.1695130000000000
  C96   C  0.5265982273950317 -0.0066281512757250  0.6918756567392751  0.1607970000000000
  C97   C  0.8363616988452274  0.9148852725887353  0.1238698839390719  0.1562120000000000
  C98   C  0.8135057881957839  0.6648453393404130  0.1200257371198224  0.1566580000000000
  C99   C  0.8135297125788049  0.5867261888188982  0.3704064054546718  0.1569660000000000
 C100   C  0.8362756714733107  0.8367175440814623  0.3734400428711662  0.1577700000000000
 C101   C  0.7639439217345649  0.8698588293570932  0.1567686586401738  0.1653220000000000
 C102   C  0.8858766957201781  0.6198373045438104  0.0870694579572159  0.1648140000000000
 C103   C  0.8856376480138484  0.6319483854343462  0.3372207874792991  0.1637290000000000
 C104   C  0.7640744966344505  0.8818067002524839  0.4065640479279817  0.1643000000000000
 C105   C  0.6234307231867758  0.5075460551425972  0.3041367637352559  0.1596700000000000
 C106   C  0.6079362532773481  0.7674199707637380 -0.0243630653696835  0.1691920000000000
 C107   C  0.6078543600418810  0.4835103140223728  0.2270208496272847  0.1663910000000000
 C108   C  0.6235589878319041  0.7429149892742000  0.0525568353361405  0.1598970000000000
 C109   C  0.5422938858298031  0.7328842086029363  0.0173566995395310  0.1685310000000000
 C110   C  0.5266704812621517  0.7573824317475677 -0.0595850706681725  0.1598370000000000
 C111   C  0.5421549061229806  0.5175828300877352  0.2688321280444073  0.1694870000000000
 C112   C  0.5265983811049941  0.4933731098082105  0.1918746772398719  0.1607850000000000
 C113   C  0.8363613400339813  0.9148825143887381  0.6238690419779243  0.1563570000000000
 C114   C  0.8135059045511488  0.6648412982608503  0.6200261274894443  0.1565850000000000
 C115   C  0.8135302121862670  0.5867260928256650  0.8704058924028288  0.1569870000000000
 C116   C  0.8362764286568276  0.8367188323818933  0.8734394305552691  0.1576710000000000
 C117   C  0.7639422646623679  0.8698570092956486  0.6567667365782223  0.1651920000000000
 C118   C  0.8858768142193624  0.6198356594124314  0.5870690533176246  0.1647330000000000
 C119   C  0.8856372745435027  0.6319475717631500  0.8372194993328509  0.1638450000000000
 C120   C  0.7640766558058336  0.8818080586220637  0.9065644732592645  0.1643570000000000
 C121   C  0.6234374868083454  0.5075456159736199  0.8041444654501124  0.1597760000000000
 C122   C  0.6079351241959202  0.7674179873359499  0.4756366664933155  0.1693310000000000
 C123   C  0.6078524584264958  0.4835038815715695  0.7270226183833394  0.1660860000000000
 C124   C  0.6235555875123536  0.7429123023457365  0.5525551920116529  0.1598770000000000
 C125   C  0.5422927450716880  0.7328834729782704  0.5173573397419752  0.1685100000000000
 C126   C  0.5266668192908407  0.7573814452039493  0.4404142647337710  0.1597930000000000
 C127   C  0.5421574100494573  0.5175809220503212  0.7688337588924140  0.1692770000000000
 C128   C  0.5265896199093809  0.4933670543586973  0.6918691549998570  0.1609960000000000
   H1   H  0.3699094796495430  0.4256117374646666  0.0979269740733163  0.1240720000000000
   H2   H  0.2799605709795903  0.1755731030041563  0.1459772106811947  0.1240010000000000
   H3   H  0.2801999994928673  0.0758101638726573  0.3965717608177881  0.1236370000000000
   H4   H  0.3696574625446489  0.3258648247994249  0.3473278052941186  0.1230550000000000
   H5   H  0.2258945495558417  0.3349681471813190  0.1599191518556026  0.1226260000000000
   H6   H  0.4239253619953141  0.0849481221590681  0.0839378809765206  0.1225220000000000
   H7   H  0.4236011707083180  0.1669633415556563  0.3340882690749487  0.1227600000000000
   H8   H  0.2260729463419550  0.4167579368649021  0.4097078839392963  0.1230010000000000
   H9   H  0.3699118766079637  0.4256083611333480  0.5979267009695590  0.1240710000000000
  H10   H  0.2799609985228335  0.1755695820924099  0.6459782415899706  0.1240000000000000
  H11   H  0.2801973080970578  0.0758121411986506  0.8965670694527555  0.1236490000000000
  H12   H  0.3696551838567309  0.3258640447884300  0.8473221209548846  0.1230670000000000
  H13   H  0.2258948079124566  0.3349684938383448  0.6599189292592285  0.1226090000000000
  H14   H  0.4239248264910931  0.0849468396356182  0.5839376969509704  0.1224910000000000
  H15   H  0.4236061873026238  0.1669598218360675  0.8340911606500672  0.1228130000000000
  H16   H  0.2260757558351413  0.4167621497327656  0.9097055000179497  0.1230070000000000
  H17   H  0.3699093033518649  0.9256119507093521  0.0979273211473039  0.1240410000000000
  H18   H  0.2799613560209311  0.6755725744548680  0.1459795580261455  0.1240350000000000
  H19   H  0.2801989663523778  0.5758118099348377  0.3965701481109377  0.1236420000000000
  H20   H  0.3696550049871867  0.8258651335599863  0.3473252871114215  0.1230160000000000
  H21   H  0.2258951419619390  0.8349694004453988  0.1599211594000361  0.1227270000000000
  H22   H  0.4239246687305350  0.5849472782133300  0.0839379576221900  0.1225910000000000
  H23   H  0.4236027653454785  0.6669622528199601  0.3340890729749202  0.1228180000000000
  H24   H  0.2260745821499961  0.9167610514499063  0.4097077122794076  0.1229490000000000
  H25   H  0.3699113204598473  0.9256067560784532  0.5979250281413195  0.1240520000000000
  H26   H  0.2799603762906833  0.6755701076914944  0.6459759738451023  0.1239640000000000
  H27   H  0.2801986379681926  0.5758116993459428  0.8965680788220507  0.1236620000000000
  H28   H  0.3696585732678238  0.8258654876336304  0.8473269520213139  0.1230880000000000
  H29   H  0.2258927714496641  0.8349675740223498  0.6599172517641037  0.1226380000000000
  H30   H  0.4239246162877684  0.5849473147229638  0.5839372903048845  0.1225140000000000
  H31   H  0.4236037481861098  0.6669628927777316  0.8340893600790530  0.1228030000000000
  H32   H  0.2260730406911302  0.9167594412400967  0.9097049853111961  0.1229840000000000
  H33   H  0.8699077590185589  0.4256110731331421  0.0979244089011683  0.1240630000000000
  H34   H  0.7799596304747779  0.1755747531496901  0.1459751509502966  0.1239810000000000
  H35   H  0.7801996371160298  0.0758120178163491  0.3965711420635211  0.1236390000000000
  H36   H  0.8696577338833612  0.3258650488175965  0.3473275400262582  0.1230800000000000
  H37   H  0.7258930039760595  0.3349680782937421  0.1599177109949473  0.1226260000000000
  H38   H  0.9239241260540170  0.0849491679262741  0.0839368123053069  0.1225350000000000
  H39   H  0.9236005334211700  0.1669635325063896  0.3340884237748586  0.1227960000000000
  H40   H  0.7260728277552235  0.4167583100938903  0.4097083403077852  0.1229920000000000
  H41   H  0.8699076441519824  0.4256067077508643  0.5979251867075059  0.1240340000000000
  H42   H  0.7799569837610993  0.1755704191434615  0.6459740837169623  0.1239820000000000
  H43   H  0.7801973709237997  0.0758132437121680  0.8965710104199572  0.1236120000000000
  H44   H  0.8696546553528453  0.3258639427329181  0.8473251808066807  0.1230610000000000
  H45   H  0.7258923615670630  0.3349657261430017  0.6599183728860599  0.1226820000000000
  H46   H  0.9239270416399320  0.0849497497585310  0.5839376738981485  0.1224820000000000
  H47   H  0.9236034972018369  0.1669605009868406  0.8340897451643673  0.1228280000000000
  H48   H  0.7260778343933424  0.4167624197142351  0.9097103117832793  0.1230130000000000
  H49   H  0.8699082321515100  0.9256113891634122  0.0979244970852894  0.1240770000000000
  H50   H  0.7799602847018070  0.6755748843717636  0.1459760225951191  0.1239160000000000
  H51   H  0.7801988089541141  0.5758123718816608  0.3965701996699518  0.1236380000000000
  H52   H  0.8696564172436577  0.8258633997845694  0.3473268204769159  0.1230540000000000
  H53   H  0.7258946529919553  0.8349688016309447  0.1599193690908053  0.1226400000000000
  H54   H  0.9239240379529903  0.5849490348084343  0.0839355686547792  0.1225780000000000
  H55   H  0.9236025345222794  0.6669623982386643  0.3340901408290546  0.1228160000000000
  H56   H  0.7260726232329604  0.9167577851721659  0.4097076082225804  0.1229440000000000
  H57   H  0.8699064160143061  0.9256076752652271  0.5979229497189077  0.1240360000000000
  H58   H  0.7799601705715696  0.6755691592344568  0.6459768665546504  0.1239540000000000
  H59   H  0.7801984984233091  0.5758116614081789  0.8965707721017847  0.1236090000000000
  H60   H  0.8696567921483811  0.8258643586741021  0.8473264061884209  0.1230930000000000
  H61   H  0.7258920660735858  0.8349655907988044  0.6599163106773090  0.1226470000000000
  H62   H  0.9239245639558067  0.5849467031210130  0.5839359896550694  0.1225200000000000
  H63   H  0.9236033029956646  0.6669612875294746  0.8340892862610183  0.1228170000000000
  H64   H  0.7260755912617300  0.9167593819847549  0.9097091422468276  0.1229740000000000
   N1   N  0.3374005190212796  0.4537274817442224  0.1785187836579558 -0.1900250000000000
   N2   N  0.3124290142547850  0.2036745093348718  0.0653349760251676 -0.1915050000000000
   N3   N  0.3123185014476486  0.0480541714597350  0.3155402336325695 -0.1912420000000000
   N4   N  0.3375970283767715  0.2980532139760044  0.4283813972934754 -0.1913330000000000
   N5   N  0.2908004293957309  0.4246497673153898  0.1997842568229677 -0.1931310000000000
   N6   N  0.3590027506558796  0.1746158118248151  0.0440334821998546 -0.1916090000000000
   N7   N  0.3586974135129671  0.0772533508897040  0.2940640683535192 -0.1905450000000000
   N8   N  0.2911471097306640  0.3271675004276425  0.4498095689483396 -0.1912770000000000
   N9   N  0.2909771666344660  0.3617740475134566  0.1084029958892393 -0.3110010000000000
  N10   N  0.3589010707250162  0.1117534936607757  0.1354916803274322 -0.3111380000000000
  N11   N  0.3588440151136981  0.1398688240887990  0.3858135776841149 -0.3122950000000000
  N12   N  0.2908422683546070  0.3897801341717590  0.3579458218679600 -0.3124540000000000
  N13   N  0.3374006277650481  0.4537261482044023  0.6785168408788865 -0.1900610000000000
  N14   N  0.3124297788310097  0.2036735572766966  0.5653373282843700 -0.1913080000000000
  N15   N  0.3123193095533596  0.0480520624452965  0.8155398554399211 -0.1912350000000000
  N16   N  0.3375931632700954  0.2980539652048881  0.9283760957839293 -0.1915380000000000
  N17   N  0.2907999389726336  0.4246493364364324  0.6997824262608140 -0.1931580000000000
  N18   N  0.3590038241748300  0.1746157023793699  0.5440356916004669 -0.1914500000000000
  N19   N  0.3587006513041545  0.0772492918389087  0.7940661132328704 -0.1904650000000000
  N20   N  0.2911450031307858  0.3271700364750694  0.9498056195876453 -0.1913370000000000
  N21   N  0.2909779562566181  0.3617715078605794  0.6084035237515322 -0.3109990000000000
  N22   N  0.3589008301601061  0.1117513287115832  0.6354913192165312 -0.3112860000000000
  N23   N  0.3588438456851866  0.1398675331784184  0.8858111338580595 -0.3123060000000000
  N24   N  0.2908415224000257  0.3897819249732059  0.8579421538298958 -0.3122670000000000
  N25   N  0.3373984810575139  0.9537285952466933  0.1785179621254885 -0.1902210000000000
  N26   N  0.3124302238780805  0.7036744158976757  0.0653376764357882 -0.1915660000000000
  N27   N  0.3123190611709543  0.5480529947221241  0.3155405898481701 -0.1911670000000000
  N28   N  0.3375944725936980  0.7980525854440642  0.4283790227302519 -0.1912640000000000
  N29   N  0.2907990390777372  0.9246514723106134  0.1997846808190983 -0.1931030000000000
  N30   N  0.3590037457221563  0.6746158488020928  0.0440357148992427 -0.1916200000000000
  N31   N  0.3586989233322987  0.5772512882350007  0.2940654142262701 -0.1903890000000000
  N32   N  0.2911456159636775  0.8271682567044515  0.4498077320950993 -0.1911630000000000
  N33   N  0.2909765905904134  0.8617744687273000  0.1084044643137143 -0.3108140000000000
  N34   N  0.3589014121699270  0.6117528630942564  0.1354928876290296 -0.3110520000000000
  N35   N  0.3588437018876368  0.6398684857488112  0.3858122750848542 -0.3123140000000000
  N36   N  0.2908439998466770  0.8897815298426361  0.3579465627285489 -0.3124870000000000
  N37   N  0.3374004553622283  0.9537236273540163  0.6785166380775314 -0.1902870000000000
  N38   N  0.3124273861626700  0.7036733471565700  0.5653333845246113 -0.1913320000000000
  N39   N  0.3123192733943894  0.5480543470932000  0.8155397166575977 -0.1911300000000000
  N40   N  0.3375973675059386  0.7980553248899802  0.9283809452743539 -0.1913850000000000
  N41   N  0.2907994599700433  0.9246473902154888  0.6997820983164125 -0.1930840000000000
  N42   N  0.3590016494757008  0.6746149977345827  0.5440324564413048 -0.1914450000000000
  N43   N  0.3586991505716291  0.5772520090389474  0.7940641577300223 -0.1904560000000000
  N44   N  0.2911471520089983  0.8271702714149938  0.9498085418165843 -0.1913570000000000
  N45   N  0.2909757979386507  0.8617705465704004  0.6084013866698531 -0.3109120000000000
  N46   N  0.3588996911628349  0.6117521105294546  0.6354897710168858 -0.3111900000000000
  N47   N  0.3588444816386068  0.6398687955576030  0.8858123765323875 -0.3123880000000000
  N48   N  0.2908419809221626  0.8897818622191654  0.8579438351740899 -0.3123570000000000
  N49   N  0.8373990935567759  0.4537275029282264  0.1785176026058783 -0.1900560000000000
  N50   N  0.8124280250022423  0.2036758404214623  0.0653343486487477 -0.1914380000000000
  N51   N  0.8123175387401438  0.0480540741559493  0.3155392510011653 -0.1912710000000000
  N52   N  0.8375959751807991  0.2980540472514877  0.4283804403761247 -0.1913290000000000
  N53   N  0.7907988082484354  0.4246498072537787  0.1997831621222984 -0.1931200000000000
  N54   N  0.8590018204726330  0.1746171302062095  0.0440332697545272 -0.1916000000000000
  N55   N  0.8586968684621092  0.0772524908400544  0.2940629958425706 -0.1904740000000000
  N56   N  0.7911463637583465  0.3271682929653376  0.4498089428364677 -0.1912540000000000
  N57   N  0.7909759123197366  0.3617740768948072  0.1084024331417222 -0.3109370000000000
  N58   N  0.8588989864926720  0.1117543291788880  0.1354906694447534 -0.3111470000000000
  N59   N  0.8588436250156192  0.1398685566417806  0.3858124796167482 -0.3122730000000000
  N60   N  0.7908413388677816  0.3897810278606060  0.3579449652827130 -0.3124390000000000
  N61   N  0.8373973773316032  0.4537251748807570  0.6785159418200789 -0.1901090000000000
  N62   N  0.8124296137431233  0.2036722344815118  0.5653368240892268 -0.1912800000000000
  N63   N  0.8123164825433250  0.0480545423965964  0.8155389092798682 -0.1912430000000000
  N64   N  0.8375950943938322  0.2980529193283451  0.9283796432831037 -0.1914760000000000
  N65   N  0.7907971693849345  0.4246485736071922  0.6997822703067713 -0.1930600000000000
  N66   N  0.8590046233005920  0.1746153630136997  0.5440362599728648 -0.1914790000000000
  N67   N  0.8586975661969906  0.0772517942067831  0.7940643157595336 -0.1904930000000000
  N68   N  0.7911475640165925  0.3271695890473240  0.9498092942087747 -0.1913650000000000
  N69   N  0.7909749531604551  0.3617711595192108  0.6084029944972813 -0.3109600000000000
  N70   N  0.8589007560195215  0.1117499778352094  0.6354912183764930 -0.3113190000000000
  N71   N  0.8588445611107294  0.1398683998286363  0.8858127870384485 -0.3122990000000000
  N72   N  0.7908449232613033  0.3897820200498445  0.8579468897820756 -0.3122450000000000
  N73   N  0.8373988859507017  0.9537279966313637  0.1785177328752293 -0.1902180000000000
  N74   N  0.8124297426174423  0.7036758080631239  0.0653361600303382 -0.1915850000000000
  N75   N  0.8123169471635534  0.5480531450199059  0.3155390448027704 -0.1911780000000000
  N76   N  0.8375939699985826  0.7980521969356836  0.4283789412103223 -0.1912450000000000
  N77   N  0.7907992885500492  0.9246501841162110  0.1997841822201025 -0.1931280000000000
  N78   N  0.8590030463670031  0.6746173850527041  0.0440341800239249 -0.1916450000000000
  N79   N  0.8586975084051341  0.5772514231676620  0.2940645826304844 -0.1904090000000000
  N80   N  0.7911446711859564  0.8271670259138914  0.4498073358037353 -0.1912490000000000
  N81   N  0.7909764333826718  0.8617741526240732  0.1084037590060961 -0.3108970000000000
  N82   N  0.8589000084613834  0.6117537481941701  0.1354910524808361 -0.3111070000000000
  N83   N  0.8588434411332357  0.6398677168779796  0.3858124350192082 -0.3122820000000000
  N84   N  0.7908419689223010  0.8897805300138885  0.3579450420971845 -0.3124420000000000
  N85   N  0.8373976371947670  0.9537259005621230  0.6785156017065167 -0.1903060000000000
  N86   N  0.8124299721865198  0.7036720029409240  0.5653363317241226 -0.1914390000000000
  N87   N  0.8123168360305019  0.5480542205866563  0.8155392490124859 -0.1911930000000000
  N88   N  0.8375965504720090  0.7980531712316017  0.9283799388388007 -0.1912740000000000
  N89   N  0.7907970389221474  0.9246486327118789  0.6997810954992929 -0.1930340000000000
  N90   N  0.8590038261827820  0.6746142581871383  0.5440345941958330 -0.1914830000000000
  N91   N  0.8586971942394245  0.5772524847127481  0.7940641696866237 -0.1903920000000000
  N92   N  0.7911477811631699  0.8271682375062618  0.9498090119044611 -0.1914630000000000
  N93   N  0.7909759769674982  0.8617711300630144  0.6084028770314199 -0.3109080000000000
  N94   N  0.8589013483161181  0.6117500811402545  0.6354909230499907 -0.3112100000000000
  N95   N  0.8588443411392298  0.6398685109151664  0.8858130574680723 -0.3123280000000000
  N96   N  0.7908426919148276  0.8897807703551315  0.8579450685663401 -0.3122620000000000
   O1   O -0.0008046655928341  0.0387053229873952  0.2922164896207030 -0.4165270000000000
   O2   O  0.1507763561789691  0.2886932044902629 -0.0478150024160164 -0.4164910000000000
   O3   O  0.1505865394998132 -0.0369897880832553  0.2030611439336599 -0.4142490000000000
   O4   O -0.0005233248641654  0.2119857288872410  0.0410286163683210 -0.4157230000000000
   O5   O  0.1831275290812686  0.0141937042142685  0.3693408308329699 -0.4778750000000000
   O6   O -0.0331348229720533  0.2642863357107599 -0.1246391588238155 -0.4780790000000000
   O7   O -0.0332174157057448 -0.0132663843627089  0.1267738173842480 -0.4788160000000000
   O8   O  0.1833473985720487  0.2362994233735277  0.1176682920611931 -0.4783140000000000
   O9   O -0.0007956597896106  0.0387002971622158  0.7922171065013413 -0.4165480000000000
  O10   O  0.1507787868333911  0.2886934307913358  0.4521823440727559 -0.4164210000000000
  O11   O  0.1505776845483972 -0.0369687687759053  0.7030514749187121 -0.4142790000000000
  O12   O -0.0005191619691557  0.2119859590138642  0.5410275517625907 -0.4157080000000000
  O13   O  0.1831239477889744  0.0141946856878979  0.8693424330968315 -0.4780380000000000
  O14   O -0.0331334356906942  0.2642906036346787  0.3753589343036529 -0.4779620000000000
  O15   O -0.0332127698329893 -0.0132642869708474  0.6267664693420057 -0.4786340000000000
  O16   O  0.1833494333106792  0.2362990959282541  0.6176634331426061 -0.4784880000000000
  O17   O -0.0008015508855720  0.5387041021811639  0.2922172639791396 -0.4165490000000000
  O18   O  0.1507771755896911  0.7886933213363554 -0.0478142612378914 -0.4165220000000000
  O19   O  0.1505837442265435  0.4630229861822217  0.2030548942173400 -0.4143090000000000
  O20   O -0.0005217065719941  0.7119852403939604  0.0410294241519592 -0.4156390000000000
  O21   O  0.1831306069937419  0.5141943727364634  0.3693459076340920 -0.4779500000000000
  O22   O -0.0331333184790817  0.7642877741626677 -0.1246380601933744 -0.4780770000000000
  O23   O -0.0332177004152115  0.4867357115515727  0.1267660541525225 -0.4787660000000000
  O24   O  0.1833492415286623  0.7362993546865858  0.1176682677249617 -0.4783450000000000
  O25   O -0.0008022655696068  0.5387013046463190  0.7922178672598019 -0.4165920000000000
  O26   O  0.1507756803120209  0.7886936888103194  0.4521805234674884 -0.4165060000000000
  O27   O  0.1505838302795899  0.4630234345993205  0.7030531655648330 -0.4143080000000000
  O28   O -0.0005222909450884  0.7119865413435725  0.5410268111862504 -0.4156660000000000
  O29   O  0.1831311664954714  0.5141957391325189  0.8693464072632044 -0.4781810000000000
  O30   O -0.0331360932095910  0.7642892217981003  0.3753569171706484 -0.4779660000000000
  O31   O -0.0332183487583092  0.4867312878625207  0.6267648877396276 -0.4787080000000000
  O32   O  0.1833484632366532  0.7362995443302304  0.6176624982049137 -0.4784640000000000
  O33   O  0.4991954254802596  0.0387037596068776  0.2922160016083215 -0.4165040000000000
  O34   O  0.6507778395862468  0.2886947804216764 -0.0478178297369959 -0.4165030000000000
  O35   O  0.6505851755061928 -0.0369895085138296  0.2030597369890324 -0.4142500000000000
  O36   O  0.4994755935757098  0.2119871032293915  0.0410233666863263 -0.4156520000000000
  O37   O  0.6831278403551958  0.0141933085727780  0.3693420134904396 -0.4778520000000000
  O38   O  0.4668655101253907  0.2642878272498644 -0.1246437129839834 -0.4781390000000000
  O39   O  0.4667826244253511 -0.0132678948089070  0.1267670711783841 -0.4788480000000000
  O40   O  0.6833462432259114  0.2363006750832481  0.1176644610072562 -0.4782050000000000
  O41   O  0.4991983950936916  0.0387040240847349  0.7922194074326496 -0.4165990000000000
  O42   O  0.6507772292735771  0.2886927643009454  0.4521840384859906 -0.4164110000000000
  O43   O  0.6505815672438786 -0.0369811696606084  0.7030543516509000 -0.4142950000000000
  O44   O  0.4994788630579227  0.2119848502611574  0.5410291496297119 -0.4157700000000000
  O45   O  0.6831327613507563  0.0141935129947656  0.8693456144823988 -0.4781530000000000
  O46   O  0.4668665881837995  0.2642896926717245  0.3753620553606815 -0.4778960000000000
  O47   O  0.4667801124808917 -0.0132663496407958  0.6267656794677032 -0.4786710000000000
  O48   O  0.6833491185303473  0.2362965860416786  0.6176659959891363 -0.4784680000000000
  O49   O  0.4991976371734682  0.5387044683624010  0.2922184703540620 -0.4165720000000000
  O50   O  0.6507803127341788  0.7886942768914611 -0.0478167562352038 -0.4165190000000000
  O51   O  0.6505828527930777  0.4630201723526637  0.2030552924096264 -0.4142900000000000
  O52   O  0.4994801459857920  0.7119848783101405  0.0410263451742074 -0.4156570000000000
  O53   O  0.6831318067597928  0.5141934129973214  0.3693460190665187 -0.4779720000000000
  O54   O  0.4668679880661731  0.7642888885835567 -0.1246413243939614 -0.4781790000000000
  O55   O  0.4667816294802210  0.4867355420491983  0.1267650706395478 -0.4788130000000000
  O56   O  0.6833486546386076  0.7362998367523685  0.1176656369412179 -0.4782360000000000
  O57   O  0.4991956072063661  0.5387054046212673  0.7922191139297488 -0.4166520000000000
  O58   O  0.6507773843844077  0.7886921650648897  0.4521837562710207 -0.4164810000000000
  O59   O  0.6505850636470879  0.4630084566699835  0.7030604114832558 -0.4141560000000000
  O60   O  0.4994769585110266  0.7119861862576358  0.5410275533408114 -0.4157240000000000
  O61   O  0.6831281053936411  0.5141925070818131  0.8693393998615936 -0.4779770000000000
  O62   O  0.4668660899376161  0.7642888916092372  0.3753611695548446 -0.4779230000000000
  O63   O  0.4667826972688793  0.4867327619544153  0.6267766414588390 -0.4785860000000000
  O64   O  0.6833482744974302  0.7362966728406863  0.6176660787205706 -0.4784770000000000
  Zn1  Zn  0.3898732331979151  0.0414096817396916  0.2192451844516197  0.6917830000000000
  Zn2  Zn  0.2601155218547138  0.2913693597250213  0.0247502005157189  0.6921740000000000
  Zn3  Zn  0.2599541468639632  0.4607343310840132  0.2746818121431229  0.6922640000000000
  Zn4  Zn  0.3900164095853750  0.2107193107470194  0.4691902412732450  0.6921190000000000
  Zn5  Zn  0.3898719860301497  0.0414068801752306  0.7192424275556617  0.6918069999999999
  Zn6  Zn  0.2601160984751070  0.2913674936232280  0.5247519226768401  0.6921970000000000
  Zn7  Zn  0.2599550080746413  0.4607362545536831  0.7746797274741950  0.6923319999999999
  Zn8  Zn  0.3900129427342091  0.2107193354686318  0.9691847440492034  0.6920130000000000
  Zn9  Zn  0.3898716547498232  0.5414086474416751  0.2192441716446549  0.6917900000000000
 Zn10  Zn  0.2601167215393009  0.7913697289550455  0.0247532969397296  0.6921750000000000
 Zn11  Zn  0.2599544235232254  0.9607334416856954  0.2746824404946236  0.6921870000000000
 Zn12  Zn  0.3900140960414098  0.7107192795168388  0.4691874189927013  0.6920930000000000
 Zn13  Zn  0.3898739831559725  0.5414094250173046  0.7192433129535007  0.6918150000000000
 Zn14  Zn  0.2601129054981013  0.7913668352557183  0.5247482125056837  0.6921800000000000
 Zn15  Zn  0.2599532490193437  0.9607351062781797  0.7746790177772559  0.6922180000000000
 Zn16  Zn  0.3900166274395883  0.7107187320152798  0.9691891409833024  0.6919890000000000
 Zn17  Zn  0.8898726390691066  0.0414106514949732  0.2192431371239552  0.6917660000000000
 Zn18  Zn  0.7601147341449442  0.2913693268903799  0.0247494596380041  0.6921430000000000
 Zn19  Zn  0.7599528261114099  0.4607339746641126  0.2746811461891391  0.6922990000000000
 Zn20  Zn  0.8900162472023464  0.2107196705517145  0.4691895052122118  0.6921220000000000
 Zn21  Zn  0.8898719601858469  0.0414071550196089  0.7192437661198263  0.6918720000000000
 Zn22  Zn  0.7601147707200406  0.2913668240019623  0.5247514137302788  0.6922010000000000
 Zn23  Zn  0.7599529554061297  0.4607323527077174  0.7746810197663575  0.6922340000000000
 Zn24  Zn  0.8900146398453643  0.2107199527743782  0.9691878445812375  0.6919840000000000
 Zn25  Zn  0.8898709019330580  0.5414095091221202  0.2192431371905557  0.6918430000000000
 Zn26  Zn  0.7601167677547810  0.7913697541356833  0.0247518146740008  0.6922290000000000
 Zn27  Zn  0.7599528526558313  0.9607340867630267  0.2746803124086141  0.6922010000000000
 Zn28  Zn  0.8900142118776714  0.7107189921416489  0.4691875673093399  0.6921050000000000
 Zn29  Zn  0.8898698263472858  0.5414075848679760  0.7192422905272883  0.6918490000000000
 Zn30  Zn  0.7601145204405276  0.7913663527836025  0.5247507323384696  0.6922590000000000
 Zn31  Zn  0.7599519157815984  0.9607341401413656  0.7746801722099063  0.6921440000000000
 Zn32  Zn  0.8900157528912831  0.7107197269981572  0.9691882834504756  0.6919419999999999