#squcalf20_pbesol_REPEAT
_chemical_name_common                    'squcalf20_pbesol'
_cell_length_a                           20.62776
_cell_length_b                           20.02450
_cell_length_c                           19.71206
_cell_angle_alpha                        89.97509
_cell_angle_beta                         121.52058
_cell_angle_gamma                        90.03291

_symmetry_cell_setting          triclinic
_symmetry_space_group_name_Hall 'P 1'
_symmetry_space_group_name_H-M  'P 1'
_symmetry_Int_Tables_number     1

_symmetry_equiv_pos_as_xyz 'x,y,z'

loop_
   _atom_site_label
   _atom_site_type_symbol
   _atom_site_fract_x
   _atom_site_fract_y
   _atom_site_fract_z
   _atom_site_charge
   C1   C  0.3372540786153797  0.4147221803251440  0.1236673205471063  0.1822800000000000
   C2   C  0.3136885821304704  0.1646863764510301  0.1205320968746531  0.1794750000000000
   C3   C  0.3132085860648228  0.0874021094350179  0.3702428840888744  0.1781030000000000
   C4   C  0.3378535717790474  0.3374789916384662  0.3739945530664094  0.1794340000000000
   C5   C  0.2647201103780951  0.3688309671158629  0.1578177416750896  0.2722540000000000
   C6   C  0.3860882048594563  0.1188691399892396  0.0862339029717396  0.2729630000000000
   C7   C  0.3858351932864540  0.1331034175793800  0.3361217161354980  0.2768360000000000
   C8   C  0.2651926217598983  0.3831189246520466  0.4080316321405530  0.2761390000000000
   C9   C  0.1247770335228119  0.0074752728534907  0.3036801816304543  0.2142480000000000
  C10   C  0.1085781878561244  0.2677439039291176 -0.0237032535730192  0.1676280000000000
  C11   C  0.1080014649453618 -0.0170492472559924  0.2254946404079736  0.1670590000000000
  C12   C  0.1253659735868147  0.2430005252070145  0.0544770546596743  0.2189860000000000
  C13   C  0.0430639726488770  0.2327680919623011  0.0196261625894633  0.1640830000000000
  C14   C  0.0263197099417802  0.2574319935765704 -0.0584655255236217  0.2146350000000000
  C15   C  0.0425089754757828  0.0177436355893703  0.2688793347162581  0.1697230000000000
  C16   C  0.0257231786106166 -0.0067896476519968  0.1906915640724299  0.2141610000000000
  C17   C  0.3372597350388732  0.4147213408408016  0.6236723520967428  0.1822730000000000
  C18   C  0.3136955114693913  0.1646880079264354  0.6205401020188100  0.1791050000000000
  C19   C  0.3132039810116193  0.0874026897218488  0.8702426971900491  0.1782330000000000
  C20   C  0.3378525663138410  0.3374802787626616  0.8739917277057651  0.1793710000000000
  C21   C  0.2647216034216289  0.3688327895215256  0.6578188282783667  0.2723590000000000
  C22   C  0.3860933919699370  0.1188694869900480  0.5862397341326275  0.2727700000000000
  C23   C  0.3858290307091380  0.1331041707510189  0.8361186057613451  0.2769350000000000
  C24   C  0.2651908244844676  0.3831199429067514  0.9080285110597474  0.2760950000000000
  C25   C  0.1247735288242683  0.0074687742559052  0.8036810407514650  0.2142640000000000
  C26   C  0.1085813918629470  0.2677457808943869  0.4762999329749866  0.1676690000000000
  C27   C  0.1079958872594091 -0.0170565902474328  0.7254939859623164  0.1669130000000000
  C28   C  0.1253687061627644  0.2430014741124098  0.5544797954362291  0.2189860000000000
  C29   C  0.0430669235311470  0.2327700073128695  0.5196293933312610  0.1640440000000000
  C30   C  0.0263222622719029  0.2574337418568031  0.4415373378370488  0.2146320000000000
  C31   C  0.0425046272046266  0.0177430313231230  0.7688775088063293  0.1696100000000000
  C32   C  0.0257167625656290 -0.0067965969797631  0.6906899756683402  0.2143220000000000
  C33   C  0.3372570383521928  0.9147219392563436  0.1236704491620765  0.1824350000000000
  C34   C  0.3136947417522283  0.6646867387008558  0.1205358209268857  0.1791590000000000
  C35   C  0.3132096111454791  0.5874021953283411  0.3702426940557116  0.1782820000000000
  C36   C  0.3378536363368266  0.8374808710976958  0.3739924501691717  0.1794630000000000
  C37   C  0.2647219439188624  0.8688311975891465  0.1578193011143351  0.2723900000000000
  C38   C  0.3860936526710515  0.6188703438879862  0.0862367757647118  0.2728110000000000
  C39   C  0.3858348619919343  0.6331034866952082  0.3361196885725549  0.2766750000000000
  C40   C  0.2651908895312424  0.8831197128089865  0.4080277309464036  0.2762150000000000
  C41   C  0.1247784886932087  0.5074703681571466  0.3036836227012227  0.2143410000000000
  C42   C  0.1085820033234900  0.7677444548042013 -0.0236993497224636  0.1677080000000000
  C43   C  0.1080008208533823  0.4829441357525030  0.2254967714284848  0.1668650000000000
  C44   C  0.1253689396177003  0.7430010078851846  0.0544802578215264  0.2189420000000000
  C45   C  0.0430679880351634  0.7327684562231103  0.0196303410133229  0.1640540000000000
  C46   C  0.0263225583903123  0.7574325414829680 -0.0584620820543924  0.2146370000000000
  C47   C  0.0425099283290560  0.5177441075958777  0.2688808518600834  0.1694630000000000
  C48   C  0.0257207534049322  0.4932050334843390  0.1906925909653900  0.2144240000000000
  C49   C  0.3372469213698693  0.9147246780650823  0.6236635600493270  0.1824520000000000
  C50   C  0.3136862076403754  0.6646873997066562  0.6205286200797376  0.1794230000000000
  C51   C  0.3132086569749031  0.5874045272486960  0.8702429411818521  0.1781160000000000
  C52   C  0.3378535354167342  0.8374808590504207  0.8739928250437271  0.1795460000000000
  C53   C  0.2647173434105806  0.8688303335212886  0.6578169196834480  0.2722560000000000
  C54   C  0.3860860191394359  0.6188699480849739  0.5862312859711506  0.2729370000000000
  C55   C  0.3858370761031084  0.6331036221001616  0.8361220285934433  0.2766300000000000
  C56   C  0.2651910625768019  0.8831181454658346  0.9080295380648673  0.2762800000000000
  C57   C  0.1247792136498937  0.5074767720314322  0.8036807213569174  0.2143900000000000
  C58   C  0.1085784000946996  0.7677467429727334  0.4762969901287168  0.1676750000000000
  C59   C  0.1080031817969489  0.4829520622248368  0.7254943528878330  0.1669120000000000
  C60   C  0.1253654332000734  0.7430005227402275  0.5544764657043563  0.2189840000000000
  C61   C  0.0430641720747744  0.7327712098238915  0.5196268912947909  0.1640510000000000
  C62   C  0.0263177080848970  0.7574355466094916  0.4415334871855529  0.2146090000000000
  C63   C  0.0425095316385110  0.5177438695112767  0.7688782635577496  0.1696140000000000
  C64   C  0.0257231184825321  0.4932116299542495  0.6906887778893858  0.2142610000000000
  C65   C  0.8372563835659400  0.4147226794377341  0.1236691726126026  0.1822610000000000
  C66   C  0.8136841422727039  0.1646878766879076  0.1205292725423415  0.1794170000000000
  C67   C  0.8132113114863299  0.0874035679635327  0.3702453886897592  0.1782530000000000
  C68   C  0.8378520579078547  0.3374802336947220  0.3739923559798982  0.1795610000000000
  C69   C  0.7647231166624199  0.3688317485077330  0.1578200377665338  0.2724400000000000
  C70   C  0.8860840727411921  0.1188700668205007  0.0862313505006462  0.2728870000000000
  C71   C  0.8858379316873342  0.1331038735769172  0.3361245828229743  0.2765710000000000
  C72   C  0.7651906198551961  0.3831192808208460  0.4080293324321628  0.2761860000000000
  C73   C  0.6247794644645204  0.0074717625638435  0.3036847076784221  0.2142990000000000
  C74   C  0.6085792050521732  0.2677461718382769 -0.0237042350889978  0.1675860000000000
  C75   C  0.6080018277271650 -0.0170537785039988  0.2254948241444333  0.1667830000000000
  C76   C  0.6253653753211541  0.2430019208751853  0.0544766399899982  0.2190640000000000
  C77   C  0.5430633964707561  0.2327695610503557  0.0196252555130810  0.1639580000000000
  C78   C  0.5263169909314918  0.2574331498168762 -0.0584688021997517  0.2146480000000000
  C79   C  0.5425075554016004  0.0177425557398027  0.2688793223656820  0.1695870000000000
  C80   C  0.5257190746671159 -0.0067962772908914  0.1906885336553240  0.2143620000000000
  C81   C  0.8372612443213718  0.4147214011545840  0.6236737644124181  0.1824030000000000
  C82   C  0.8136872842911254  0.1646892174591542  0.6205331924998428  0.1793330000000000
  C83   C  0.8132061373728467  0.0874023549152150  0.8702431043551468  0.1783150000000000
  C84   C  0.8378525512340730  0.3374795174347104  0.8739931226345944  0.1795180000000000
  C85   C  0.7647233104869826  0.3688329551854779  0.6578206391172673  0.2724320000000000
  C86   C  0.8860861436907066  0.1188710240186018  0.5862339720832966  0.2729120000000000
  C87   C  0.8858326441567919  0.1331034126830168  0.8361227170139920  0.2765940000000000
  C88   C  0.7651910940539056  0.3831195062561909  0.9080297313910507  0.2761510000000000
  C89   C  0.6247716779214844  0.0074534256949208  0.8036847979699352  0.2142920000000000
  C90   C  0.6085806010167802  0.2677466795288161  0.4762985631564730  0.1674840000000000
  C91   C  0.6079920163386825 -0.0170738295412159  0.7254931336030526  0.1667540000000000
  C92   C  0.6253689811513403  0.2430019514912808  0.5544802299934122  0.2191520000000000
  C93   C  0.5430643589833174  0.2327704579824611  0.5196286016499151  0.1638710000000000
  C94   C  0.5263188101981583  0.2574347083232631  0.4415338475183452  0.2147040000000000
  C95   C  0.5425013521506346  0.0177391194094055  0.7688758241945636  0.1697000000000000
  C96   C  0.5257088520815474 -0.0068172601500125  0.6906888466445849  0.2142420000000000
  C97   C  0.8372595286699493  0.9147227998986698  0.1236727178219375  0.1823460000000000
  C98   C  0.8136897582433454  0.6646882000151808  0.1205331275062596  0.1793490000000000
  C99   C  0.8132114364783085  0.5874036988388346  0.3702445397978260  0.1782580000000000
 C100   C  0.8378512435463747  0.8374812783298242  0.3739900219080803  0.1795580000000000
 C101   C  0.7647245574584757  0.8688324504507259  0.1578212781241947  0.2723610000000000
 C102   C  0.8860893115776133  0.6188711195245544  0.0862338536124510  0.2729000000000000
 C103   C  0.8858368552755979  0.6331045145152963  0.3361217345568438  0.2765780000000000
 C104   C  0.7651894071279588  0.8831197109981633  0.4080273717057935  0.2761790000000000
 C105   C  0.6247802394199868  0.5074677511493700  0.3036865706744660  0.2143350000000000
 C106   C  0.6085820672752079  0.7677457198284346 -0.0236999431254525  0.1676700000000000
 C107   C  0.6080006927516057  0.4829404115859568  0.2254968657828719  0.1668140000000000
 C108   C  0.6253699063767485  0.7430018118159075  0.0544821074836429  0.2189800000000000
 C109   C  0.5430671584525931  0.7327696338233202  0.0196311857476933  0.1640330000000000
 C110   C  0.5263204050866996  0.7574334786348784 -0.0584626424885473  0.2145860000000000
 C111   C  0.5425092334383860  0.5177435867967995  0.2688806105360511  0.1694400000000000
 C112   C  0.5257189383893268  0.4931998767280727  0.1906916770934842  0.2144370000000000
 C113   C  0.8372565569263093  0.9147230148377634  0.6236696359251857  0.1822280000000000
 C114   C  0.8136839515696582  0.6646880172168961  0.6205284091708654  0.1794350000000000
 C115   C  0.8132104456618459  0.5874045791510576  0.8702440971232972  0.1781460000000000
 C116   C  0.8378510591760449  0.8374794719064604  0.8739898840243567  0.1795110000000000
 C117   C  0.7647225930859476  0.8688319093324717  0.6578194502384278  0.2724900000000000
 C118   C  0.8860833157377933  0.6188699212633940  0.5862290983491683  0.2727910000000000
 C119   C  0.8858373851235759  0.6331045396392279  0.8361229535830402  0.2765810000000000
 C120   C  0.7651872870283843  0.8831163483860314  0.9080261910872357  0.2761660000000000
 C121   C  0.6247799658837125  0.5074747019675668  0.8036823970256044  0.2142470000000000
 C122   C  0.6085793849674830  0.7677464748506136  0.4762973116945963  0.1676100000000000
 C123   C  0.6080030341075112  0.4829491401476072  0.7254956885467005  0.1669200000000000
 C124   C  0.6253682152819394  0.7430019091935997  0.5544786545225294  0.2190290000000000
 C125   C  0.5430641569520582  0.7327705779759954  0.5196275830440148  0.1640300000000000
 C126   C  0.5263193287743617  0.7574344359439549  0.4415344961760658  0.2146060000000000
 C127   C  0.5425100866117439  0.5177439552339154  0.7688799430791107  0.1695970000000000
 C128   C  0.5257235874745072  0.4932095053698886  0.6906913926239581  0.2143600000000000
   H1   H  0.3713596492975179  0.4260651387992079  0.0973149396387920  0.1046900000000000
   H2   H  0.2796010946834565  0.1759999005116282  0.1469101958772466  0.1054570000000000
   H3   H  0.2791993450709726  0.0760768926366012  0.3967064081350742  0.1065800000000000
   H4   H  0.3719691089845629  0.3262297272103633  0.3476529406811448  0.1062610000000000
   H5   H  0.2265536310288213  0.3328828729780692  0.1613361073113290  0.0905610000000000
   H6   H  0.4242705998044201  0.0830026294351116  0.0827003131647973  0.0902030000000000
   H7   H  0.4242194335100522  0.1688877803266251  0.3327574768965930  0.0886030000000000
   H8   H  0.2269013006946912  0.4189674063136599  0.4114169465671223  0.0891780000000000
   H9   H  0.3713684899344998  0.4260643934723505  0.5973236762382040  0.1047360000000000
  H10   H  0.2796097700231481  0.1760010559708311  0.6469206707187920  0.1055480000000000
  H11   H  0.2791947322790633  0.0760756708153043  0.8967061660980888  0.1065500000000000
  H12   H  0.3719668819921636  0.3262304931338658  0.8476489046174495  0.1062980000000000
  H13   H  0.2265527763247054  0.3328870653524966  0.6613361290475250  0.0905360000000000
  H14   H  0.4242756161086174  0.0830027330094506  0.5827062572535842  0.0902970000000000
  H15   H  0.4242120633443736  0.1688901997405359  0.8327534080953374  0.0886180000000000
  H16   H  0.2268989194357017  0.4189683434414960  0.9114135309986181  0.0891700000000000
  H17   H  0.3713642152099361  0.9260651099176956  0.0973191594048544  0.1046510000000000
  H18   H  0.2796077951337232  0.6759991516881937  0.1469146032646058  0.1055090000000000
  H19   H  0.2792010518436725  0.5760766503421350  0.3967066262232239  0.1065570000000000
  H20   H  0.3719695786882951  0.8262319628253062  0.3476509781046774  0.1062810000000000
  H21   H  0.2265548795894183  0.8328841818926110  0.1613379557794060  0.0905180000000000
  H22   H  0.4242765206432817  0.5830041957394637  0.0827025566637102  0.0902650000000000
  H23   H  0.4242185220946960  0.6688877788261884  0.3327548113295234  0.0886790000000000
  H24   H  0.2268988940834678  0.9189679108562239  0.4114124915602087  0.0891320000000000
  H25   H  0.3713519434841998  0.9260693024615226  0.5973105398521132  0.1046060000000000
  H26   H  0.2795960733504339  0.6760021677565390  0.6469037509440071  0.1054440000000000
  H27   H  0.2791983344148140  0.5760796797494816  0.8967058273812701  0.1065800000000000
  H28   H  0.3719691247721438  0.8262320142619946  0.8476509787731392  0.1062430000000000
  H29   H  0.2265535505379350  0.8328791553697051  0.6613366205578000  0.0905280000000000
  H30   H  0.4242687651698389  0.5830033309489746  0.5826972296485625  0.0902140000000000
  H31   H  0.4242221904863834  0.6688870135696925  0.8327585253046403  0.0886860000000000
  H32   H  0.2268986800829350  0.9189658148571742  0.9114145252596855  0.0891030000000000
  H33   H  0.8713621467182527  0.4260670522004406  0.0973171009164558  0.1047060000000000
  H34   H  0.7795945407921899  0.1760017339501822  0.1469051007237278  0.1054460000000000
  H35   H  0.7792016323763264  0.0760785114382555  0.3967087646695522  0.1065470000000000
  H36   H  0.8719661926161264  0.3262328152931976  0.3476489477835940  0.1062720000000000
  H37   H  0.7265561862200187  0.3328856529615103  0.1613393223332413  0.0904880000000000
  H38   H  0.9242665791282340  0.0830024104814310  0.0826984235659185  0.0902250000000000
  H39   H  0.9242218855612999  0.1688878190761328  0.3327589079267352  0.0886760000000000
  H40   H  0.7268998499513426  0.4189685029985453  0.4114146745198423  0.0891060000000000
  H41   H  0.8713713566001382  0.4260654239524659  0.5973256337572669  0.1046910000000000
  H42   H  0.7795988258909032  0.1760035491152018  0.6469101686229461  0.1054670000000000
  H43   H  0.7791958639859310  0.0760757839081333  0.8967051818892885  0.1065450000000000
  H44   H  0.8719675669564279  0.3262308884053573  0.8476504816852896  0.1062810000000000
  H45   H  0.7265550341255018  0.3328886071644427  0.6613395054947103  0.0904990000000000
  H46   H  0.9242684262915251  0.0830032241661867  0.5827004760541346  0.0902140000000000
  H47   H  0.9242168536179546  0.1688888205917524  0.8327580740741556  0.0886640000000000
  H48   H  0.7268999345744172  0.4189684754813756  0.9114149981547046  0.0891490000000000
  H49   H  0.8713673175058888  0.9260671647403101  0.0973226506322624  0.1047140000000000
  H50   H  0.7796019866587992  0.6760008030979630  0.1469107934984682  0.1054630000000000
  H51   H  0.7792025026345406  0.5760781067198482  0.3967078459998839  0.1065860000000000
  H52   H  0.8719651154818285  0.8262336268571344  0.3476458815460046  0.1062830000000000
  H53   H  0.7265566984180518  0.8328869578478344  0.1613404704546759  0.0905030000000000
  H54   H  0.9242724355067443  0.5830040186806397  0.0827011039909911  0.0902270000000000
  H55   H  0.9242198692935200  0.6688889603134287  0.3327551591885806  0.0886880000000000
  H56   H  0.7268982581916904  0.9189675455002283  0.4114128152871283  0.0891230000000000
  H57   H  0.8713648047915888  0.9260681416098985  0.5973198627408398  0.1047070000000000
  H58   H  0.7795950587068596  0.6760025351924255  0.6469042653836565  0.1054250000000000
  H59   H  0.7791999949549339  0.5760783357358132  0.8967053690562655  0.1065650000000000
  H60   H  0.8719688119011760  0.8262326319245077  0.8476494131096658  0.1063060000000000
  H61   H  0.7265562997508745  0.8328838398590827  0.6613383405032516  0.0904530000000000
  H62   H  0.9242657969080935  0.5830018452387816  0.5826958137691283  0.0902410000000000
  H63   H  0.9242218540493771  0.6688882213703403  0.8327581658989417  0.0886660000000000
  H64   H  0.7268971221344274  0.9189649607925400  0.9114122864668115  0.0890630000000000
   N1   N  0.3383205693774219  0.4537559712795294  0.1790204171011658 -0.2793100000000000
   N2   N  0.3125072419515417  0.2037140657476309  0.0650763256596020 -0.2787450000000000
   N3   N  0.3119756256168757  0.0483721971785674  0.3147888371925831 -0.2773870000000000
   N4   N  0.3389794075888863  0.2983929122670220  0.4293832861424290 -0.2785630000000000
   N5   N  0.2918680603908848  0.4243148091081361  0.2009753897526695 -0.2006410000000000
   N6   N  0.3588500232499264  0.1743092290999061  0.0430070533700642 -0.2008430000000000
   N7   N  0.3584909577608751  0.0777106542602049  0.2928514890921390 -0.2030780000000000
   N8   N  0.2924299564795540  0.3276867244522254  0.4512651295772379 -0.2040590000000000
   N9   N  0.2917338453928602  0.3609710222726988  0.1086544227577597 -0.4148000000000000
  N10   N  0.3592251332532034  0.1109852235266244  0.1355391423280737 -0.4136920000000000
  N11   N  0.3589070866131749  0.1410456510469613  0.3853511504886648 -0.4127780000000000
  N12   N  0.2921935838517769  0.3911095238613352  0.3588673231093147 -0.4131920000000000
  N13   N  0.3383240512892676  0.4537559122315076  0.6790234430471439 -0.2792990000000000
  N14   N  0.3125131743920152  0.2037148914661664  0.5650829947404243 -0.2784940000000000
  N15   N  0.3119726013566190  0.0483716042334109  0.8147901868352024 -0.2773920000000000
  N16   N  0.3389780299815344  0.2983940406470788  0.9293802949917164 -0.2786060000000000
  N17   N  0.2918693311209636  0.4243165971445996  0.7009760992734829 -0.2007690000000000
  N18   N  0.3588548541962428  0.1743092855898363  0.5430124140774893 -0.2008290000000000
  N19   N  0.3584866380238658  0.0777096288073608  0.7928508374947091 -0.2031550000000000
  N20   N  0.2924278473566372  0.3276875089872435  0.9512615643861153 -0.2040140000000000
  N21   N  0.2917377249551542  0.3609710260809239  0.6086578348786172 -0.4147850000000000
  N22   N  0.3592316137634573  0.1109871202039607  0.6355460041763824 -0.4133640000000000
  N23   N  0.3589008824283388  0.1410471407132250  0.8853480492479197 -0.4129290000000000
  N24   N  0.2921927293887129  0.3911108094315265  0.8588650904018170 -0.4130990000000000
  N25   N  0.3383215488495367  0.9537563574098894  0.1790217290549955 -0.2795990000000000
  N26   N  0.3125126525271969  0.7037145984513468  0.0650796699821646 -0.2785460000000000
  N27   N  0.3119770289761705  0.5483713274044810  0.3147896035108280 -0.2775780000000000
  N28   N  0.3389787765450880  0.7983939885197028  0.4293800524086479 -0.2787290000000000
  N29   N  0.2918684676196417  0.9243156275296993  0.2009757175747739 -0.2006240000000000
  N30   N  0.3588549924770488  0.6743100689451798  0.0430098234805062 -0.2008420000000000
  N31   N  0.3584912712634121  0.5777097636654186  0.2928506783970556 -0.2027930000000000
  N32   N  0.2924280946497073  0.8276869774946430  0.4512607298912077 -0.2039970000000000
  N33   N  0.2917372174404001  0.8609704848090327  0.1086574419578478 -0.4148650000000000
  N34   N  0.3592313636243054  0.6109857375252851  0.1355425606768163 -0.4133460000000000
  N35   N  0.3589067684312767  0.6410461353725557  0.3853490206784617 -0.4128780000000000
  N36   N  0.2921935581325309  0.8911111214079384  0.3588650849633042 -0.4132160000000000
  N37   N  0.3383135495557208  0.9537574740251968  0.6790169809863110 -0.2797230000000000
  N38   N  0.3125051461224387  0.7037143908163888  0.5650722533491620 -0.2787090000000000
  N39   N  0.3119752955175411  0.5483736828900283  0.8147891956072801 -0.2775220000000000
  N40   N  0.3389810952908174  0.7983942783806650  0.9293821441204843 -0.2787070000000000
  N41   N  0.2918630336801881  0.9243146450357680  0.7009736790158223 -0.2004210000000000
  N42   N  0.3588480885904964  0.6743092855103262  0.5430036555449794 -0.2009070000000000
  N43   N  0.3584912166512502  0.5777106781074315  0.7928514056338927 -0.2027810000000000
  N44   N  0.2924303287058367  0.8276862246789783  0.9512635233160149 -0.2040470000000000
  N45   N  0.2917295937536847  0.8609722011354636  0.6086520555808211 -0.4148150000000000
  N46   N  0.3592241971121033  0.6109865018436980  0.6355376698623799 -0.4135620000000000
  N47   N  0.3589086322453071  0.6410469490375579  0.8853512320026157 -0.4127570000000000
  N48   N  0.2921915895902762  0.8911100908514091  0.8588648857584972 -0.4133080000000000
  N49   N  0.8383236643481282  0.4537560239067381  0.1790230024712830 -0.2792810000000000
  N50   N  0.8125044381566389  0.2037156235155942  0.0650747781446777 -0.2786550000000000
  N51   N  0.8119786731096964  0.0483722949131080  0.3147921000032776 -0.2776900000000000
  N52   N  0.8389794218613873  0.2983942479822563  0.4293816102967900 -0.2787340000000000
  N53   N  0.7918719431855042  0.4243154799520054  0.2009780824338644 -0.2008120000000000
  N54   N  0.8588475209171729  0.1743102226724344  0.0430055128636880 -0.2008590000000000
  N55   N  0.8584935797618354  0.0777101242217424  0.2928546584315219 -0.2027060000000000
  N56   N  0.7924290340946729  0.3276878009793610  0.4512633857456675 -0.2039940000000000
  N57   N  0.7917360003673957  0.3609720168468273  0.1086563632409918 -0.4148500000000000
  N58   N  0.8592211609118735  0.1109864355946469  0.1355370991989553 -0.4135860000000000
  N59   N  0.8589092056109866  0.1410470177252311  0.3853533166693219 -0.4127110000000000
  N60   N  0.7921914401619091  0.3911106295117413  0.3588647468406070 -0.4132910000000000
  N61   N  0.8383265074464795  0.4537555418374148  0.6790259359839176 -0.2794260000000000
  N62   N  0.8125070377293258  0.2037165873511106  0.5650780033434972 -0.2786430000000000
  N63   N  0.8119748989298168  0.0483714026503363  0.8147907363915070 -0.2777100000000000
  N64   N  0.8389780115367779  0.2983934021886461  0.9293812891402702 -0.2787380000000000
  N65   N  0.7918727006286573  0.4243168281476726  0.7009789431013441 -0.2007570000000000
  N66   N  0.8588498243841922  0.1743110606695356  0.5430081544594942 -0.2008780000000000
  N67   N  0.8584897311289134  0.0777095622160165  0.7928532382091684 -0.2026910000000000
  N68   N  0.7924278150069393  0.3276874828281202  0.9512627863604596 -0.2039620000000000
  N69   N  0.7917382810937997  0.3609718295814481  0.6086586646008986 -0.4148820000000000
  N70   N  0.8592234838867163  0.1109875121908307  0.6355399225133299 -0.4134960000000000
  N71   N  0.8589033754570595  0.1410460793064914  0.8853509494428392 -0.4127690000000000
  N72   N  0.7921927049791738  0.3911104825854933  0.8588659506487828 -0.4132150000000000
  N73   N  0.8383253625800444  0.9537562367108059  0.1790256256942488 -0.2793110000000000
  N74   N  0.8125086910686615  0.7037157796092417  0.0650774189378103 -0.2786930000000000
  N75   N  0.8119789962723525  0.5483720496391655  0.3147914850578469 -0.2776910000000000
  N76   N  0.8389790637660153  0.7983951482376779  0.4293791813700231 -0.2787840000000000
  N77   N  0.7918727833261787  0.9243160172557744  0.2009790855907135 -0.2008020000000000
  N78   N  0.8588515458202817  0.6743106285405129  0.0430074351950879 -0.2008310000000000
  N79   N  0.8584929252130344  0.5777102031183025  0.2928527127757221 -0.2027230000000000
  N80   N  0.7924285643683888  0.8276880844851845  0.4512614020092849 -0.2039500000000000
  N81   N  0.7917385309394473  0.8609719674832645  0.1086586421943955 -0.4148280000000000
  N82   N  0.8592273937799041  0.6109872640635020  0.1355402531798436 -0.4134990000000000
  N83   N  0.8589087181709072  0.6410474473943587  0.3853509903390748 -0.4127490000000000
  N84   N  0.7921905920181992  0.8911111560604826  0.3588632095002200 -0.4132610000000000
  N85   N  0.8383222816798438  0.9537561824897403  0.6790228787186575 -0.2792210000000000
  N86   N  0.8125038256936972  0.7037154114898176  0.5650730157706436 -0.2786870000000000
  N87   N  0.8119769215642062  0.5483740219061204  0.8147897083547230 -0.2775560000000000
  N88   N  0.8389807741986270  0.7983943165102111  0.9293809822794794 -0.2787070000000000
  N89   N  0.7918699782123341  0.9243160475826628  0.7009770531869496 -0.2009260000000000
  N90   N  0.8588468112697312  0.6743097933806542  0.5430032862575430 -0.2008230000000000
  N91   N  0.8584918948849082  0.5777116650195849  0.7928519343982278 -0.2027900000000000
  N92   N  0.7924287652233835  0.8276861354417655  0.9512623102656833 -0.2039890000000000
  N93   N  0.7917359057243418  0.8609720260460320  0.6086559765997598 -0.4148420000000000
  N94   N  0.8592210165436870  0.6109863469606411  0.6355354512026905 -0.4135550000000000
  N95   N  0.8589097981704339  0.6410471753712946  0.8853526869465154 -0.4126590000000000
  N96   N  0.7921862582851630  0.8911074098777566  0.8588597417399558 -0.4132840000000000
   O1   O -0.0005455782927430  0.0388855090625820  0.2929564296885674 -0.4966780000000000
   O2   O  0.1515118527726859  0.2890207130385302 -0.0478993770457786 -0.4961780000000000
   O3   O  0.1510815391756879 -0.0381889895659869  0.2014369857187807 -0.4950000000000000
   O4   O -0.0001892505213304  0.2115932928027862  0.0434703059958579 -0.4937790000000000
   O5   O  0.1861177601158750  0.0139556892782171  0.3691924541245971 -0.4683530000000000
   O6   O -0.0351220030424224  0.2639321694996045 -0.1238836528000020 -0.4678540000000000
   O7   O -0.0356335081194317 -0.0132951281455817  0.1252069454392509 -0.4674740000000000
   O8   O  0.1866153467889510  0.2363684453007181  0.1199870664917900 -0.4697800000000000
   O9   O -0.0005469020329064  0.0388976187176786  0.7929498518546030 -0.4966380000000000
  O10   O  0.1515155532529335  0.2890212281979497  0.4521046226114672 -0.4961740000000000
  O11   O  0.1510754778591983 -0.0381870487051543  0.7014336065178423 -0.4949680000000000
  O12   O -0.0001857633112564  0.2115943474752548  0.5434735114896756 -0.4937460000000000
  O13   O  0.1861115499903329  0.0139505771520352  0.8691887298540515 -0.4682860000000000
  O14   O -0.0351186824990126  0.2639327427450073  0.3761185710458665 -0.4678770000000000
  O15   O -0.0356366554820976 -0.0132988712159282  0.6252082864874056 -0.4674740000000000
  O16   O  0.1866188892428898  0.2363674260105728  0.6199881379524163 -0.4697790000000000
  O17   O -0.0005414821684164  0.5388969896656213  0.2929538634190904 -0.4965790000000000
  O18   O  0.1515150744537864  0.7890211893827355 -0.0478958042259612 -0.4962060000000000
  O19   O  0.1510796840246473  0.4618124639138930  0.2014367680928399 -0.4949610000000000
  O20   O -0.0001856324480687  0.7115935789394123  0.0434741821251720 -0.4937530000000000
  O21   O  0.1861162371908696  0.5139523639912851  0.3691903532377999 -0.4683400000000000
  O22   O -0.0351175270878517  0.7639326656801699 -0.1238792667257781 -0.4678680000000000
  O23   O -0.0356317710120452  0.4867030380166560  0.1252126779954948 -0.4675090000000000
  O24   O  0.1866200079539039  0.7363688044568979  0.1199907707067888 -0.4697590000000000
  O25   O -0.0005449682961347  0.5388807649344151  0.7929545440180293 -0.4966930000000000
  O26   O  0.1515104413379905  0.7890222424649946  0.4521001275137535 -0.4962250000000000
  O27   O  0.1510821018917121  0.4618096278781199  0.7014395637675375 -0.4949670000000000
  O28   O -0.0001881204583662  0.7115964301573875  0.5434715086128528 -0.4937720000000000
  O29   O  0.1861159740752838  0.5139555633422506  0.8691898771969111 -0.4683900000000000
  O30   O -0.0351195571483100  0.7639340100706540  0.3761170641066746 -0.4678310000000000
  O31   O -0.0356298233744468  0.4867054388350293  0.6252095599262723 -0.4674600000000000
  O32   O  0.1866148644749604  0.7363641242446101  0.6199838970729117 -0.4697600000000000
  O33   O  0.4994567299127528  0.0388922422368547  0.2929489114986573 -0.4966660000000000
  O34   O  0.6515113110770058  0.2890221942325285 -0.0478992097534751 -0.4961610000000000
  O35   O  0.6510795409814306 -0.0381837650384463  0.2014373436795587 -0.4949340000000000
  O36   O  0.4998119445966528  0.2115944001431313  0.0434702442777347 -0.4937590000000000
  O37   O  0.6861134682288573  0.0139533148609497  0.3691865602355480 -0.4682880000000000
  O38   O  0.4648819332589861  0.2639322943032788 -0.1238844018902619 -0.4678120000000000
  O39   O  0.4643695185821939 -0.0133002166695475  0.1252148703117767 -0.4674470000000000
  O40   O  0.6866134094888908  0.2363699066139771  0.1199827267267484 -0.4697610000000000
  O41   O  0.4994552714542529  0.0389284936452964  0.7929361730387448 -0.4967020000000000
  O42   O  0.6515121044503136  0.2890220858712148  0.4521029387978731 -0.4961620000000000
  O43   O  0.6510726012172109 -0.0381786909361553  0.7014239979778284 -0.4948840000000000
  O44   O  0.4998142300118196  0.2115960896184020  0.5434736645313484 -0.4936740000000000
  O45   O  0.6861059134439724  0.0139407345441956  0.8691834160806857 -0.4682700000000000
  O46   O  0.4648835815659026  0.2639321205600040  0.3761209972599558 -0.4678190000000000
  O47   O  0.4643598752165807 -0.0133130857881107  0.6252138880894990 -0.4674040000000000
  O48   O  0.6866131873031565  0.2363679845734997  0.6199845714330918 -0.4697660000000000
  O49   O  0.4994596700269596  0.5389035141832114  0.2929471230124203 -0.4965580000000000
  O50   O  0.6515133287859185  0.7890205672065631 -0.0478962902739753 -0.4961940000000000
  O51   O  0.6510781462719005  0.4618158821125333  0.2014361541813346 -0.4949510000000000
  O52   O  0.4998161407955923  0.7115940302191061  0.0434759245348300 -0.4937720000000000
  O53   O  0.6861149524809326  0.5139515229643797  0.3691874616267012 -0.4682960000000000
  O54   O  0.4648837019623066  0.7639321426916368 -0.1238772668763395 -0.4678560000000000
  O55   O  0.4643680797686984  0.4866989706822967  0.1252174534790053 -0.4675000000000000
  O56   O  0.6866170602841404  0.7363693546662103  0.1199871135634130 -0.4697240000000000
  O57   O  0.4994560893638233  0.5388858270887351  0.7929542430395036 -0.4966300000000000
  O58   O  0.6515110179417449  0.7890220640989793  0.4521005387789142 -0.4961940000000000
  O59   O  0.6510816851353349  0.4618099069468741  0.7014384764870629 -0.4949740000000000
  O60   O  0.4998131611864173  0.7115955856733005  0.5434725082407807 -0.4938020000000000
  O61   O  0.6861177148487755  0.5139552730881857  0.8691910166247773 -0.4683050000000000
  O62   O  0.4648799155180768  0.7639318482363159  0.3761196157358270 -0.4678320000000000
  O63   O  0.4643690650174026  0.4867049506565155  0.6252112052665679 -0.4675290000000000
  O64   O  0.6866133820240373  0.7363667082211900  0.6199854833319791 -0.4697210000000000
  Zn1  Zn  0.3895906497732574  0.0412191438312328  0.2188833619027859  0.8263560000000000
  Zn2  Zn  0.2614033645432934  0.2912146273271546  0.0253407306085216  0.8271539999999999
  Zn3  Zn  0.2610174611056081  0.4608502958632633  0.2751598133823162  0.8244860000000001
  Zn4  Zn  0.3899377204608661  0.2108813261484006  0.4689005804107853  0.8247600000000000
  Zn5  Zn  0.3895877784588880  0.0412162482538310  0.7188797456688103  0.8262980000000000
  Zn6  Zn  0.2614066362507493  0.2912139068852974  0.5253451171907993  0.8270170000000000
  Zn7  Zn  0.2610196771644490  0.4608508544994747  0.7751596393200919  0.8244930000000000
  Zn8  Zn  0.3899352034521321  0.2108819810816218  0.9688988681798327  0.8248610000000000
  Zn9  Zn  0.3895932618659938  0.5412172694892486  0.2188843739039402  0.8259470000000000
 Zn10  Zn  0.2614064595814562  0.7912138584227569  0.0253437063545152  0.8270660000000000
 Zn11  Zn  0.2610172262078906  0.9608508799936953  0.2751577687214996  0.8244570000000000
 Zn12  Zn  0.3899388676545696  0.7108820913511961  0.4688975087023169  0.8249930000000000
 Zn13  Zn  0.3895926908192463  0.5412184569703217  0.7188819204800070  0.8260270000000000
 Zn14  Zn  0.2614023902833328  0.7912149541210255  0.5253381497132090  0.8271560000000000
 Zn15  Zn  0.2610135198550731  0.9608520308535168  0.7751576821768704  0.8244240000000000
 Zn16  Zn  0.3899406617980530  0.7108821966550437  0.9689003089422278  0.8249030000000001
 Zn17  Zn  0.8895933943584711  0.0412196697204446  0.2188828149327783  0.8260520000000000
 Zn18  Zn  0.7614041395194585  0.2912172732709505  0.0253435008877370  0.8271010000000000
 Zn19  Zn  0.7610156215068717  0.4608518543020235  0.2751551581283272  0.8246200000000000
 Zn20  Zn  0.8899402111113951  0.2108834493999524  0.4689036949691887  0.8248380000000000
 Zn21  Zn  0.8895899510347248  0.0412180723274137  0.7188809814446667  0.8259880000000001
 Zn22  Zn  0.7614070544969239  0.2912174996453772  0.5253449494090427  0.8271170000000000
 Zn23  Zn  0.7610182611985166  0.4608521312830858  0.7751595877345741  0.8245290000000000
 Zn24  Zn  0.8899368729421792  0.2108823277341706  0.9689014436417058  0.8248560000000000
 Zn25  Zn  0.8895945721681958  0.5412184154669124  0.2188816167300499  0.8260090000000000
 Zn26  Zn  0.7614072806336504  0.7912163657609662  0.0253455860262568  0.8271269999999999
 Zn27  Zn  0.7610167728958896  0.9608511449985331  0.2751557654191696  0.8246180000000000
 Zn28  Zn  0.8899369368467691  0.7108836796498937  0.4688990420811493  0.8248740000000000
 Zn29  Zn  0.8895923139179034  0.5412198244642622  0.7188810543389824  0.8261600000000000
 Zn30  Zn  0.7614051653859373  0.7912173899632617  0.5253408747052232  0.8271180000000000
 Zn31  Zn  0.7610098842261585  0.9608533718557063  0.7751553718057913  0.8246800000000000
 Zn32  Zn  0.8899406852054791  0.7108827750940357  0.9689018195683423  0.8248070000000000