#squcalf20_pbe0-d3bj_REPEAT
_chemical_name_common                    'squcalf20_pbe0-d3bj'
_cell_length_a                           21.88429
_cell_length_b                           21.15965
_cell_length_c                           20.83318
_cell_angle_alpha                        89.98820
_cell_angle_beta                         120.66633
_cell_angle_gamma                        90.00765

_symmetry_cell_setting          triclinic
_symmetry_space_group_name_Hall 'P 1'
_symmetry_space_group_name_H-M  'P 1'
_symmetry_Int_Tables_number     1

_symmetry_equiv_pos_as_xyz 'x,y,z'

loop_
   _atom_site_label
   _atom_site_type_symbol
   _atom_site_fract_x
   _atom_site_fract_y
   _atom_site_fract_z
   _atom_site_charge
   C1   C  0.3364053099343703  0.4145626079100272  0.1230350699265650  0.1783050000000000
   C2   C  0.3136270457094907  0.1645463802593700  0.1209153635441231  0.1777690000000000
   C3   C  0.3133389155271631  0.0872040665327282  0.3709365324903477  0.1675260000000000
   C4   C  0.3366099132015286  0.3372474394425606  0.3729346998261032  0.1711580000000000
   C5   C  0.2631348405763282  0.3700519170630865  0.1569741797493714  0.2558580000000000
   C6   C  0.3868441126919075  0.1200641139601221  0.0869128992719214  0.2550500000000000
   C7   C  0.3862351783231037  0.1318618504457083  0.3366090713693959  0.2577230000000000
   C8   C  0.2635751404745972  0.3817904747716124  0.4071322120854514  0.2572900000000000
   C9   C  0.1230284682069088  0.0078925518971531  0.3041620881165351  0.1985470000000000
  C10   C  0.1085753808514970  0.2675644985493644 -0.0242128351378561  0.1376770000000000
  C11   C  0.1083299392853347 -0.0165840571106636  0.2267747054924142  0.1363070000000000
  C12   C  0.1232742742840117  0.2429579455614735  0.0531147214630611  0.1965040000000000
  C13   C  0.0416830142821349  0.2330523337869277  0.0175574758359841  0.1340830000000000
  C14   C  0.0269634559842910  0.2576727898430916 -0.0597576826548341  0.1968380000000000
  C15   C  0.0413892533912177  0.0176783565739351  0.2685752845363323  0.1351370000000000
  C16   C  0.0267370751191321 -0.0068558632537951  0.1912871026917843  0.1946900000000000
  C17   C  0.3364065583730642  0.4145616931514567  0.6230363520477823  0.1781020000000000
  C18   C  0.3136281087842316  0.1645439874080953  0.6209175020979453  0.1778310000000000
  C19   C  0.3133394941760203  0.0872038564664817  0.8709354372069154  0.1675270000000000
  C20   C  0.3366076906584799  0.3372469093554721  0.8729320869832160  0.1711770000000000
  C21   C  0.2631347518631859  0.3700523713114748  0.6569743118494520  0.2559590000000000
  C22   C  0.3868439008744016  0.1200621037266761  0.5869130924062155  0.2549910000000000
  C23   C  0.3862382491204253  0.1318604583746762  0.8366107085046007  0.2577470000000000
  C24   C  0.2635754312610505  0.3817917241687332  0.9071314274762238  0.2573040000000000
  C25   C  0.1230277366703381  0.0078964260831161  0.8041610997906630  0.1985620000000000
  C26   C  0.1085754971219413  0.2675647551704065  0.4757851339187375  0.1376250000000000
  C27   C  0.1083312567340894 -0.0165689208293648  0.7267702464982516  0.1362830000000000
  C28   C  0.1232745734790809  0.2429578890164072  0.5531131176083142  0.1965300000000000
  C29   C  0.0416834183778463  0.2330526966714194  0.5175559039064379  0.1340930000000000
  C30   C  0.0269626819554266  0.2576735252869174  0.4402405011455103  0.1968300000000000
  C31   C  0.0413877660989724  0.0176781921845910  0.7685737815799915  0.1351350000000000
  C32   C  0.0267368288136138 -0.0068509751452795  0.6912841114225150  0.1947220000000000
  C33   C  0.3364052673625023  0.9145638286892167  0.1230355418054207  0.1783740000000000
  C34   C  0.3136294810750499  0.6645460223235164  0.1209178784379435  0.1777660000000000
  C35   C  0.3133397172346931  0.5872038807732850  0.3709368212892284  0.1674670000000000
  C36   C  0.3366099967526294  0.8372474810575089  0.3729348217928808  0.1709440000000000
  C37   C  0.2631348045530870  0.8700536832125572  0.1569748690337739  0.2559090000000000
  C38   C  0.3868435523896579  0.6200631985374262  0.0869122774407456  0.2550850000000000
  C39   C  0.3862364140056602  0.6318605743980339  0.3366094239435094  0.2577400000000000
  C40   C  0.2635767351087756  0.8817912722948429  0.4071336117002683  0.2571680000000000
  C41   C  0.1230286950189788  0.5078952785776132  0.3041621253491845  0.1985900000000000
  C42   C  0.1085759235218895  0.7675647509795761 -0.0242131568182241  0.1375520000000000
  C43   C  0.1083311216859565  0.4834257045803875  0.2267720638766891  0.1363050000000000
  C44   C  0.1232768218453883  0.7429578383948789  0.0531163336817379  0.1965610000000000
  C45   C  0.0416842085836494  0.7330522402828801  0.0175584851916144  0.1340330000000000
  C46   C  0.0269625428030411  0.7576727906847668 -0.0597581809659663  0.1969000000000000
  C47   C  0.0413887682896642  0.5176783558323522  0.2685748764142793  0.1350790000000000
  C48   C  0.0267369749854122  0.4931473814006911  0.1912854212289924  0.1947120000000000
  C49   C  0.3364062159626646  0.9145610676783521  0.6230358828629730  0.1780240000000000
  C50   C  0.3136270574874432  0.6645439135125043  0.6209162275211731  0.1777400000000000
  C51   C  0.3133401361014626  0.5872048138668411  0.8709364715181758  0.1675280000000000
  C52   C  0.3366089195396674  0.8372480193914200  0.8729336253453646  0.1711890000000000
  C53   C  0.2631338520505158  0.8700517443621074  0.6569734156922551  0.2558940000000000
  C54   C  0.3868430326328098  0.6200627544625918  0.5869119110458400  0.2550510000000000
  C55   C  0.3862369732504599  0.6318618411295794  0.8366094504862398  0.2577740000000000
  C56   C  0.2635743244240303  0.8817908197506255  0.9071311263339477  0.2573060000000000
  C57   C  0.1230306190564748  0.5078957458595773  0.8041642276023472  0.1986360000000000
  C58   C  0.1085740602548382  0.7675647026359028  0.4757836077908236  0.1375400000000000
  C59   C  0.1083311689707283  0.4834264420944401  0.7267715227381571  0.1362070000000000
  C60   C  0.1232738774522372  0.7429576483327542  0.5531125918375289  0.1965710000000000
  C61   C  0.0416819017984509  0.7330529899409989  0.5175548880454424  0.1340320000000000
  C62   C  0.0269603541834249  0.7576736702083884  0.4402385588644773  0.1968950000000000
  C63   C  0.0413883296180887  0.5176781344637639  0.7685750491520046  0.1349880000000000
  C64   C  0.0267344332911220  0.4931467514833102  0.6912833009631809  0.1947760000000000
  C65   C  0.8362881192726368  0.4145747869051902  0.1230276021958275  0.1752150000000000
  C66   C  0.8135005128548535  0.1645892687634877  0.1208117852590785  0.1767040000000000
  C67   C  0.8132453318772105  0.0872077214524034  0.3708782011344935  0.1693950000000000
  C68   C  0.8365417009608326  0.3372516015166224  0.3729474995847515  0.1699890000000000
  C69   C  0.7630190489283918  0.3700704908669261  0.1569709956190705  0.2554130000000000
  C70   C  0.8867057617647246  0.1201058881537718  0.0867980471609779  0.2569280000000000
  C71   C  0.8861334296983527  0.1318347889282283  0.3365222476555606  0.2603260000000000
  C72   C  0.7635156557480912  0.3817736594751615  0.4071655235047974  0.2564380000000000
  C73   C  0.6230326829084548  0.0077371724322680  0.3041063751795610  0.1993280000000000
  C74   C  0.6084214472087006  0.2675585830531379 -0.0243574915753401  0.1361890000000000
  C75   C  0.6082550444423482 -0.0166423731243096  0.2266710537498529  0.1351750000000000
  C76   C  0.6232215104952512  0.2429501251416553  0.0530025347216624  0.1969760000000000
  C77   C  0.5416644734350962  0.2329743307451378  0.0175417221262835  0.1347440000000000
  C78   C  0.5268325894762498  0.2576094622422522 -0.0598120514582724  0.1970540000000000
  C79   C  0.5414257863141754  0.0176275571938937  0.2685948601760424  0.1348750000000000
  C80   C  0.5266875515246169 -0.0068573888725873  0.1912347716417708  0.1957340000000000
  C81   C  0.8362878092039364  0.4145730862730053  0.6230276308793590  0.1752280000000000
  C82   C  0.8134998546919658  0.1645874986817623  0.6208105623598487  0.1766110000000000
  C83   C  0.8132442201845025  0.0872072734589903  0.8708758917708183  0.1694710000000000
  C84   C  0.8365421365548578  0.3372513479857225  0.8729465989639842  0.1699180000000000
  C85   C  0.7630184739208080  0.3700696659711122  0.6569712647408062  0.2553820000000000
  C86   C  0.8867070363455047  0.1201053521507034  0.5867988585190121  0.2569040000000000
  C87   C  0.8861355303175947  0.1318333820091517  0.8365232102128193  0.2601990000000000
  C88   C  0.7635193906776935  0.3817753834715303  0.9071680712799000  0.2564820000000000
  C89   C  0.6230311501033332  0.0077388191023961  0.8041048850794350  0.1991730000000000
  C90   C  0.6084217358208147  0.2675574665170029  0.4756449398256557  0.1362300000000000
  C91   C  0.6082553418780255 -0.0166372522876231  0.7266697545693456  0.1353810000000000
  C92   C  0.6232226245212104  0.2429493828376693  0.5530035913684854  0.1970020000000000
  C93   C  0.5416653187082344  0.2329729368254030  0.5175442902379225  0.1347830000000000
  C94   C  0.5268351242208505  0.2576084593847144  0.4401908761098575  0.1969870000000000
  C95   C  0.5414265961904821  0.0176272998553365  0.7685956024156240  0.1349990000000000
  C96   C  0.5266890940891515 -0.0068553042855399  0.6912370603377961  0.1956410000000000
  C97   C  0.8362883319698169  0.9145758140736324  0.1230282709339455  0.1752320000000000
  C98   C  0.8135024019767864  0.6645893691141450  0.1208129469144691  0.1767140000000000
  C99   C  0.8132455868148877  0.5872073004849896  0.3708776003296038  0.1694550000000000
 C100   C  0.8365413688504477  0.8372514886556739  0.3729475464979313  0.1699540000000000
 C101   C  0.7630198940248842  0.8700709283062232  0.1569722074060584  0.2554180000000000
 C102   C  0.8867055849512016  0.6201054531223358  0.0867970366578761  0.2568950000000000
 C103   C  0.8861343652637481  0.6318338676690229  0.3365226305968799  0.2602220000000000
 C104   C  0.7635157761019110  0.8817739863609965  0.4071659819505047  0.2564360000000000
 C105   C  0.6230334792461002  0.5077394963856299  0.3041074416794754  0.1992830000000000
 C106   C  0.6084234339977719  0.7675585700890177 -0.0243559721759054  0.1361730000000000
 C107   C  0.6082557494939269  0.4833639494669111  0.2266704575000941  0.1353220000000000
 C108   C  0.6232235267997068  0.7429497072117751  0.0530042614614352  0.1969990000000000
 C109   C  0.5416658248456923  0.7329740853192555  0.0175425759852537  0.1347330000000000
 C110   C  0.5268341252488771  0.7576097423245487 -0.0598113726500390  0.1970480000000000
 C111   C  0.5414259742299018  0.5176280982921202  0.2685960850086118  0.1348610000000000
 C112   C  0.5266876681283337  0.4931450218998037  0.1912349950068444  0.1956690000000000
 C113   C  0.8362880776225368  0.9145736551780972  0.6230271775522989  0.1751980000000000
 C114   C  0.8135011945983096  0.6645874495900675  0.6208119979342818  0.1765350000000000
 C115   C  0.8132439813126777  0.5872078194605244  0.8708759324019716  0.1694460000000000
 C116   C  0.8365409802047933  0.8372519607048701  0.8729452592203795  0.1699630000000000
 C117   C  0.7630192859225172  0.8700697754225285  0.6569709960754396  0.2554040000000000
 C118   C  0.8867051949390642  0.6201043550997071  0.5867971198617338  0.2569280000000000
 C119   C  0.8861345632106711  0.6318328461908390  0.8365222351618198  0.2602880000000000
 C120   C  0.7635174433551191  0.8817750254679620  0.9071661397765580  0.2564400000000000
 C121   C  0.6230317658973136  0.5077370049935491  0.8041061518256954  0.1992580000000000
 C122   C  0.6084213055001287  0.7675574210693111  0.4756448582586549  0.1361560000000000
 C123   C  0.6082548230557504  0.4833553129033737  0.7266721865247763  0.1352430000000000
 C124   C  0.6232235618212941  0.7429491019781909  0.5530048372765153  0.1970340000000000
 C125   C  0.5416649907516771  0.7329726915795642  0.5175446861424200  0.1347050000000000
 C126   C  0.5268334941091890  0.7576082580027322  0.4401897938139955  0.1970870000000000
 C127   C  0.5414268277430490  0.5176271762166634  0.7685960788067744  0.1348660000000000
 C128   C  0.5266885860231603  0.4931418351851484  0.6912377079385156  0.1957630000000000
   H1   H  0.3707054070806349  0.4246563879637358  0.0965504847275418  0.1042670000000000
   H2   H  0.2793349301719935  0.1746343124871202  0.1474091026352301  0.1042710000000000
   H3   H  0.2792606899887879  0.0769317239338805  0.3976455747370835  0.1092370000000000
   H4   H  0.3706946634828535  0.3270427202132210  0.3462279128815390  0.1082550000000000
   H5   H  0.2244076936457600  0.3348427402035687  0.1603448684765830  0.0909150000000000
   H6   H  0.4255641958238416  0.0848884120457756  0.0835088298221471  0.0922410000000000
   H7   H  0.4248681480689363  0.1671133847377888  0.3331238820680482  0.0899270000000000
   H8   H  0.2248861101460086  0.4170063458952819  0.4105603982223884  0.0897860000000000
   H9   H  0.3707073866054410  0.4246552121082626  0.5965523795209118  0.1044150000000000
  H10   H  0.2793369003162372  0.1746310480862782  0.6474123317224965  0.1042580000000000
  H11   H  0.2792592174847131  0.0769327043773985  0.8976426016030717  0.1092400000000000
  H12   H  0.3706914071955267  0.3270415368837605  0.8462245552025142  0.1082650000000000
  H13   H  0.2244068331153860  0.3348443858563561  0.6603452313340780  0.0908700000000000
  H14   H  0.4255635465059927  0.0848861069587262  0.5835082267633400  0.0922650000000000
  H15   H  0.4248718160232451  0.1671110150378100  0.8331257984858488  0.0899380000000000
  H16   H  0.2248877961352066  0.4170085436641405  0.9105603528282420  0.0897600000000000
  H17   H  0.3707054679020658  0.9246575173511059  0.0965511892840789  0.1042580000000000
  H18   H  0.2793389484874482  0.6746341723098321  0.1474129334410851  0.1042740000000000
  H19   H  0.2792605833417188  0.5769316836523293  0.3976445256277154  0.1092460000000000
  H20   H  0.3706941111872309  0.8270422869211247  0.3462274085389925  0.1083540000000000
  H21   H  0.2244072741531191  0.8348449511082429  0.1603459297055315  0.0909410000000000
  H22   H  0.4255623231591200  0.5848866768753824  0.0835073736070494  0.0922020000000000
  H23   H  0.4248695957036326  0.6671121908165915  0.3331244954649403  0.0899270000000000
  H24   H  0.2248885032277630  0.9170076403013590  0.4105622344743738  0.0898530000000000
  H25   H  0.3707071337528182  0.9246540382805654  0.5965519640753475  0.1044390000000000
  H26   H  0.2793359102052805  0.6746314014136178  0.6474107317166143  0.1042860000000000
  H27   H  0.2792610280203466  0.5769330116482053  0.8976444115473353  0.1092210000000000
  H28   H  0.3706934619961131  0.8270429447489143  0.8462272608501796  0.1082500000000000
  H29   H  0.2244056517737604  0.8348437173256734  0.6603441601034772  0.0908790000000000
  H30   H  0.4255630974358620  0.5848865751106066  0.5835079591564786  0.0922410000000000
  H31   H  0.4248700114998715  0.6671136035840497  0.8331248722900995  0.0899240000000000
  H32   H  0.2248853535465734  0.9170070042442398  0.9105587563447785  0.0897730000000000
  H33   H  0.8706310870105500  0.4246664163396643  0.0965886708215898  0.1054690000000000
  H34   H  0.7792383818056459  0.1746843947670700  0.1473365862170447  0.1044460000000000
  H35   H  0.7792184798986084  0.0769379513763953  0.3976457053170008  0.1083730000000000
  H36   H  0.8706492392266411  0.3270580807094440  0.3462599266571878  0.1092670000000000
  H37   H  0.7243198390534386  0.3348412290287803  0.1603558624567576  0.0901910000000000
  H38   H  0.9254494937425001  0.0849315813527416  0.0834320562255397  0.0912030000000000
  H39   H  0.9248042333150754  0.1670612002031583  0.3330661708793328  0.0890530000000000
  H40   H  0.7248374941632092  0.4169922111729886  0.4106035209606828  0.0896180000000000
  H41   H  0.8706303619450305  0.4246636649156942  0.5965883015472110  0.1054640000000000
  H42   H  0.7792371711968431  0.1746818419569557  0.6473348473094718  0.1045560000000000
  H43   H  0.7792154138858904  0.0769380528739572  0.8976420801861960  0.1083340000000000
  H44   H  0.8706483572862320  0.3270564821614930  0.8462579118988488  0.1093050000000000
  H45   H  0.7243191836195491  0.3348401316279148  0.6603558227629732  0.0902370000000000
  H46   H  0.9254514657446595  0.0849319226673370  0.5834332307474358  0.0912400000000000
  H47   H  0.9248074830448050  0.1670582412590232  0.8330674664155245  0.0891060000000000
  H48   H  0.7248425160845947  0.4169956720985580  0.9106069552814993  0.0896140000000000
  H49   H  0.8706310345012556  0.9246673805362315  0.0965889030210473  0.1054720000000000
  H50   H  0.7792408995596926  0.6746853527921530  0.1473381038394422  0.1044470000000000
  H51   H  0.7792179222578428  0.5769375505491905  0.3976442122431153  0.1083330000000000
  H52   H  0.8706487513437215  0.8270574213420930  0.3462597811898634  0.1092800000000000
  H53   H  0.7243210163994155  0.8348414453761190  0.1603574192419145  0.0902040000000000
  H54   H  0.9254485370889584  0.5849307300278294  0.0834303953540700  0.0912270000000000
  H55   H  0.9248053399691435  0.6670597999527604  0.3330666895577097  0.0890800000000000
  H56   H  0.7248378538693834  0.9169929215360464  0.4106038610653998  0.0896280000000000
  H57   H  0.8706306175338179  0.9246644782336119  0.5965878238417126  0.1054910000000000
  H58   H  0.7792397968575143  0.6746825344648020  0.6473374373941876  0.1045640000000000
  H59   H  0.7792159100498773  0.5769380257911186  0.8976424818938948  0.1083530000000000
  H60   H  0.8706470496463232  0.8270576474003121  0.8462564106563008  0.1092690000000000
  H61   H  0.7243200589267186  0.8348402675118949  0.6603559429599093  0.0902110000000000
  H62   H  0.9254485308461524  0.5849304289612975  0.5834305438602405  0.0912080000000000
  H63   H  0.9248069093104849  0.6670571071941521  0.8330665912684395  0.0890720000000000
  H64   H  0.7248401055915884  0.9169949067320035  0.9106044190492464  0.0896140000000000
   N1   N  0.3378370171927260  0.4541897810930290  0.1779911658512383 -0.3041910000000000
   N2   N  0.3121418414161087  0.2041716625288421  0.0659140447846600 -0.3042610000000000
   N3   N  0.3117412765915852  0.0476646267989758  0.3158266176912801 -0.3020680000000000
   N4   N  0.3382653477440615  0.2977051738640829  0.4280920556464734 -0.3042210000000000
   N5   N  0.2900727579920568  0.4250353675717923  0.2002596757407260 -0.1859900000000000
   N6   N  0.3598628603808260  0.1750373495673672  0.0436025167959568 -0.1857250000000000
   N7   N  0.3592386664751065  0.0769202640101601  0.2932880408940247 -0.1866100000000000
   N8   N  0.2906565952967646  0.3268850331904224  0.4505351795978594 -0.1846480000000000
   N9   N  0.2905300108916201  0.3612739900160751  0.1079888218465533 -0.4149560000000000
  N10   N  0.3595228287888400  0.1112766897776111  0.1359682791136871 -0.4138980000000000
  N11   N  0.3591143598017003  0.1405450667949375  0.3858530081173151 -0.4079310000000000
  N12   N  0.2907277594587610  0.3905150981923126  0.3579205185876266 -0.4108890000000000
  N13   N  0.3378380014190681  0.4541893390641231  0.6779918652756517 -0.3040850000000000
  N14   N  0.3121424395297839  0.2041698745211282  0.5659162556081589 -0.3043170000000000
  N15   N  0.3117442411152122  0.0476632095385043  0.8158281653562705 -0.3020060000000000
  N16   N  0.3382627433736816  0.2977045730192767  0.9280892960425541 -0.3042780000000000
  N17   N  0.2900727938029328  0.4250358392557554  0.7002595978475633 -0.1860840000000000
  N18   N  0.3598628670084845  0.1750356307298664  0.5436035093282819 -0.1856560000000000
  N19   N  0.3592429690534957  0.0769181679304729  0.7932910572885442 -0.1866230000000000
  N20   N  0.2906557532082383  0.3268856048694441  0.9505335346456990 -0.1845990000000000
  N21   N  0.2905307949957079  0.3612735685264131  0.6079897288223426 -0.4149330000000000
  N22   N  0.3595237093449460  0.1112739566432674  0.6359690823813029 -0.4138980000000000
  N23   N  0.3591151051439262  0.1405451597404980  0.8858521985501936 -0.4079780000000000
  N24   N  0.2907273107828457  0.3905156447799838  0.8579191545228971 -0.4108820000000000
  N25   N  0.3378364966258572  0.9541913758870885  0.1779910872232359 -0.3041920000000000
  N26   N  0.3121441065870649  0.7041718072678208  0.0659165419015218 -0.3042630000000000
  N27   N  0.3117433088196355  0.5476638180703409  0.3158279351685570 -0.3019600000000000
  N28   N  0.3382642276179513  0.7977043718859073  0.4280910823771099 -0.3041390000000000
  N29   N  0.2900720934147299  0.9250372504819939  0.2002596662182621 -0.1860840000000000
  N30   N  0.3598631314300317  0.6750371902106013  0.0436029736745668 -0.1857200000000000
  N31   N  0.3592407409160824  0.5769187506087584  0.2932892395836349 -0.1866700000000000
  N32   N  0.2906566701955183  0.8268845579883892  0.4505350011359473 -0.1846280000000000
  N33   N  0.2905302525068916  0.8612750707718210  0.1079897695613854 -0.4150180000000000
  N34   N  0.3595234561166014  0.6112756762000283  0.1359687965883362 -0.4138980000000000
  N35   N  0.3591149271486968  0.6405447846902832  0.3858527822851250 -0.4079130000000000
  N36   N  0.2907298886293999  0.8905159343033242  0.3579224224595494 -0.4108050000000000
  N37   N  0.3378376682985629  0.9541885741434151  0.6779913961235782 -0.3040390000000000
  N38   N  0.3121409968672538  0.7041694213191531  0.5659142447276203 -0.3042520000000000
  N39   N  0.3117440750795997  0.5476645005228136  0.8158282228498649 -0.3019840000000000
  N40   N  0.3382645614016523  0.7977058633037458  0.9280917459200057 -0.3042630000000000
  N41   N  0.2900719609833274  0.9250347836107167  0.7002588943441961 -0.1860490000000000
  N42   N  0.3598615185822391  0.6750358021143942  0.5436015912085025 -0.1857180000000000
  N43   N  0.3592417686804527  0.5769197118738822  0.7932896860364482 -0.1866660000000000
  N44   N  0.2906562227675045  0.8268854122222393  0.9505346487983167 -0.1846000000000000
  N45   N  0.2905298326319581  0.8612728515957006  0.6079889565574190 -0.4148760000000000
  N46   N  0.3595230018829947  0.6112745846875468  0.6359682933673233 -0.4138700000000000
  N47   N  0.3591150497101280  0.6405461135928271  0.8858524096008337 -0.4079740000000000
  N48   N  0.2907266767950682  0.8905152501725616  0.8579190914105708 -0.4109200000000000
  N49   N  0.8376937426962185  0.4542072771544688  0.1779633322442480 -0.3036820000000000
  N50   N  0.8120098737545957  0.2042132053409072  0.0658087916636234 -0.3031210000000000
  N51   N  0.8115850086436570  0.0476821288755365  0.3157246215964508 -0.3024430000000000
  N52   N  0.8381717831778950  0.2976912897356459  0.4280770782990224 -0.3046330000000000
  N53   N  0.7899285310043110  0.4250630961355464  0.2002400655678488 -0.1855690000000000
  N54   N  0.8597297076801451  0.1750780682244159  0.0434824482532394 -0.1865120000000000
  N55   N  0.8590832328132938  0.0769159399712578  0.2931636676179796 -0.1877190000000000
  N56   N  0.7905703416450572  0.3268570752074293  0.4505423041034579 -0.1838370000000000
  N57   N  0.7904139199411405  0.3612857191497039  0.1079847220767223 -0.4127400000000000
  N58   N  0.8593808190899267  0.1113168146774197  0.1358502127757742 -0.4145500000000000
  N59   N  0.8590496463676383  0.1405243305592782  0.3857988900745887 -0.4109670000000000
  N60   N  0.7906689617586075  0.3905222677793809  0.3579544064867981 -0.4105190000000000
  N61   N  0.8376930421110673  0.4542064530859012  0.6779625679949196 -0.3036950000000000
  N62   N  0.8120099109104321  0.2042120601704979  0.5658085073569471 -0.3031590000000000
  N63   N  0.8115842486735498  0.0476817520220397  0.8157230657820799 -0.3024600000000000
  N64   N  0.8381720037011476  0.2976911885987604  0.9280766275855256 -0.3046070000000000
  N65   N  0.7899273421295174  0.4250627292220918  0.7002393474929292 -0.1855670000000000
  N66   N  0.8597311102709694  0.1750776597866488  0.5434835375134881 -0.1864760000000000
  N67   N  0.8590844787990809  0.0769148808924146  0.7931640467387617 -0.1877180000000000
  N68   N  0.7905728463394449  0.3268581560821485  0.9505439990982432 -0.1838510000000000
  N69   N  0.7904135895039496  0.3612838575020855  0.6079855030268743 -0.4127460000000000
  N70   N  0.8593806525408082  0.1113153361255837  0.6358495527953830 -0.4145250000000000
  N71   N  0.8590500858463219  0.1405232562246749  0.8857984240565886 -0.4109140000000000
  N72   N  0.7906714338773592  0.3905230592030312  0.8579556857493464 -0.4105200000000000
  N73   N  0.8376938485821275  0.9542082651709743  0.1779637959626957 -0.3036710000000000
  N74   N  0.8120116936177342  0.7042133711394772  0.0658098813872169 -0.3031350000000000
  N75   N  0.8115859715123641  0.5476814243721330  0.3157247201670262 -0.3024880000000000
  N76   N  0.8381704392686817  0.7976907161228673  0.4280763244222080 -0.3046230000000000
  N77   N  0.7899288672103001  0.9250636952780914  0.2002409123983859 -0.1855990000000000
  N78   N  0.8597300267130135  0.6750780491400836  0.0434820427727331 -0.1864920000000000
  N79   N  0.8590843811694843  0.5769148214834536  0.2931642414085022 -0.1876810000000000
  N80   N  0.7905695015813324  0.8268565961564588  0.4505417992659748 -0.1838530000000000
  N81   N  0.7904147368407468  0.8612863759203822  0.1079857758747941 -0.4127610000000000
  N82   N  0.8593812608626639  0.6113165398079576  0.1358501317554891 -0.4145400000000000
  N83   N  0.8590498069703663  0.6405238026211205  0.3857986041518979 -0.4109020000000000
  N84   N  0.7906698170667398  0.8905225692816832  0.3579553788485462 -0.4104760000000000
  N85   N  0.8376934243915526  0.9542066806301922  0.6779622668679520 -0.3036960000000000
  N86   N  0.8120102844841792  0.7042118946167970  0.5658093765502701 -0.3030760000000000
  N87   N  0.8115828253679067  0.5476824825768087  0.8157221650658918 -0.3024600000000000
  N88   N  0.8381719222046264  0.7976919723896437  0.9280761522751281 -0.3046250000000000
  N89   N  0.7899279446082091  0.9250624223896101  0.7002393157185619 -0.1855430000000000
  N90   N  0.8597294056451971  0.6750768736108603  0.5434822457440104 -0.1865130000000000
  N91   N  0.8590827154517620  0.5769147566505390  0.7931624948817717 -0.1877460000000000
  N92   N  0.7905723763567162  0.8268582482107976  0.9505430576983026 -0.1838350000000000
  N93   N  0.7904139987189028  0.8612841143802109  0.6079849729966488 -0.4127360000000000
  N94   N  0.8593806061177618  0.6113147910937651  0.6358495924244596 -0.4144980000000000
  N95   N  0.8590498567149308  0.6405230547032787  0.8857984286726412 -0.4109640000000000
  N96   N  0.7906690492950589  0.8905228499618625  0.8579533912701315 -0.4104990000000000
   O1   O -0.0018740032505134  0.0388623043414000  0.2928916081791309 -0.4639530000000000
   O2   O  0.1517226483090144  0.2888040258376753 -0.0486632867674792 -0.4657790000000000
   O3   O  0.1513735234906823 -0.0374873145852832  0.2020440291814540 -0.4650630000000000
   O4   O -0.0014549664262327  0.2118668797183547  0.0420501128401617 -0.4640450000000000
   O5   O  0.1823004974982310  0.0147959346668972  0.3694911637978244 -0.4265640000000000
   O6   O -0.0323776034810357  0.2645507908254104 -0.1250382110310952 -0.4260760000000000
   O7   O -0.0325826668938053 -0.0137142199146592  0.1259774212050091 -0.4239560000000000
   O8   O  0.1825594269342954  0.2361690833157394  0.1184563395145593 -0.4243600000000000
   O9   O -0.0018757436496408  0.0388604677117662  0.7928901386776087 -0.4639530000000000
  O10   O  0.1517233600328633  0.2888038442453928  0.4513354310594432 -0.4657420000000000
  O11   O  0.1513770772534400 -0.0374522533788466  0.7020342289884861 -0.4650500000000000
  O12   O -0.0014537474807952  0.2118672814760485  0.5420490832356579 -0.4640620000000000
  O13   O  0.1822986178375409  0.0147968431161899  0.8694911000544557 -0.4265610000000000
  O14   O -0.0323785097637163  0.2645522663347848  0.3749608384003535 -0.4260490000000000
  O15   O -0.0325820228657166 -0.0137127636648246  0.6259750216268810 -0.4239930000000000
  O16   O  0.1825596485446805  0.2361692249592565  0.6184539958619591 -0.4243540000000000
  O17   O -0.0018743680796056  0.5388611880737745  0.2928913920712737 -0.4639370000000000
  O18   O  0.1517219800917524  0.7888042012382406 -0.0486640786291846 -0.4657440000000000
  O19   O  0.1513756813812198  0.4625351759741943  0.2020373919962247 -0.4650710000000000
  O20   O -0.0014526392533032  0.7118669838272996  0.0420513196662903 -0.4640270000000000
  O21   O  0.1822995886066162  0.5147969497788246  0.3694916462733612 -0.4265580000000000
  O22   O -0.0323778901681138  0.7645505098985528 -0.1250370134794315 -0.4260590000000000
  O23   O -0.0325819672811817  0.4862868550106980  0.1259764447505735 -0.4239570000000000
  O24   O  0.1825611795614928  0.7361692335616508  0.1184563890743818 -0.4243550000000000
  O25   O -0.0018733763377405  0.5388609984423074  0.7928915448306474 -0.4639010000000000
  O26   O  0.1517210345095229  0.7888037518784189  0.4513332381094960 -0.4656910000000000
  O27   O  0.1513741605342774  0.4625382145523420  0.7020357475695187 -0.4650280000000000
  O28   O -0.0014544103528887  0.7118681272286067  0.5420486917849302 -0.4640380000000000
  O29   O  0.1822992884635488  0.5147972167506903  0.8694914195879048 -0.4265300000000000
  O30   O -0.0323800443524683  0.7645522976312121  0.3749595760086044 -0.4260620000000000
  O31   O -0.0325822693342838  0.4862860962113943  0.6259767486880432 -0.4239490000000000
  O32   O  0.1825580322776326  0.7361686566590568  0.6184530080308659 -0.4243610000000000
  O33   O  0.4982697554605435  0.0388328407006358  0.2930353073300114 -0.4645060000000000
  O34   O  0.6515247413103843  0.2888359349049950 -0.0488431020159097 -0.4647810000000000
  O35   O  0.6512680186419203 -0.0375454727471179  0.2019084598329229 -0.4643680000000000
  O36   O  0.4986175299828038  0.2117390611828498  0.0421248586595106 -0.4644500000000000
  O37   O  0.6823499574168839  0.0144883769095432  0.3694251478151662 -0.4262670000000000
  O38   O  0.4674450757131153  0.2644776036060518 -0.1250495746927513 -0.4256910000000000
  O39   O  0.4673735083623121 -0.0136915289346318  0.1259240030374312 -0.4243830000000000
  O40   O  0.6825497534579402  0.2362129823803027  0.1183126093553264 -0.4239410000000000
  O41   O  0.4982694592514746  0.0388312868633806  0.7930364548719822 -0.4645340000000000
  O42   O  0.6515249581245737  0.2888354462710725  0.4511591372551406 -0.4648140000000000
  O43   O  0.6512697007749793 -0.0375350089115239  0.7019051224159193 -0.4644560000000000
  O44   O  0.4986171611057554  0.2117376989344984  0.5421269355936970 -0.4644380000000000
  O45   O  0.6823498971148348  0.0144894839567139  0.8694254033787285 -0.4262320000000000
  O46   O  0.4674471461990962  0.2644767428254400  0.3749525935657658 -0.4256580000000000
  O47   O  0.4673727809630043 -0.0136910500228581  0.6259254873362682 -0.4244060000000000
  O48   O  0.6825524794862261  0.2362123080807074  0.6183139208566031 -0.4240200000000000
  O49   O  0.4982698872472243  0.5388318709218031  0.2930368076978889 -0.4645010000000000
  O50   O  0.6515264213839179  0.7888362242932517 -0.0488414521119721 -0.4647780000000000
  O51   O  0.6512687284115405  0.4624671646721841  0.2019054907225347 -0.4644430000000000
  O52   O  0.4986188279817992  0.7117388836550897  0.0421254830305105 -0.4644340000000000
  O53   O  0.6823501338490765  0.5144894043802135  0.3694263063531224 -0.4262430000000000
  O54   O  0.4674474230417154  0.7644786252348313 -0.1250486084722795 -0.4256780000000000
  O55   O  0.4673738682408691  0.4863091990034106  0.1259250627327048 -0.4243470000000000
  O56   O  0.6825511628612997  0.7362126555290383  0.1183140908450212 -0.4239520000000000
  O57   O  0.4982700724739384  0.5388324779434770  0.7930365790179987 -0.4644970000000000
  O58   O  0.6515234274682203  0.7888356060586298  0.4511587651945513 -0.4647850000000000
  O59   O  0.6512678298026381  0.4624490848254674  0.7019097231289335 -0.4643970000000000
  O60   O  0.4986176277658668  0.7117379244242750  0.5421276645467153 -0.4644240000000000
  O61   O  0.6823501473424566  0.5144895663192965  0.8694256851966954 -0.4262470000000000
  O62   O  0.4674466199619656  0.7644761406614664  0.3749528264485300 -0.4256990000000000
  O63   O  0.4673729500047843  0.4863079919233257  0.6259261690626395 -0.4244450000000000
  O64   O  0.6825522390721879  0.7362124076887814  0.6183139947548032 -0.4240020000000000
  Zn1  Zn  0.3900946155500837  0.0408608565600093  0.2183270370880032  0.8321560000000000
  Zn2  Zn  0.2599906112720337  0.2908575607519567  0.0256941173118525  0.8322760000000000
  Zn3  Zn  0.2597250734199846  0.4611747913891660  0.2755983836403333  0.8312079999999999
  Zn4  Zn  0.3902874213569593  0.2111523021689749  0.4682857413151320  0.8300280000000000
  Zn5  Zn  0.3900955307166547  0.0408581162305351  0.7183287348151173  0.8320880000000000
  Zn6  Zn  0.2599921385175567  0.2908555432879643  0.5256972985724458  0.8322750000000000
  Zn7  Zn  0.2597244214187404  0.4611762391145983  0.7755981817544223  0.8312070000000000
  Zn8  Zn  0.3902885086438517  0.2111528978040803  0.9682852428108645  0.8300850000000000
  Zn9  Zn  0.3900948895710925  0.5408590553776350  0.2183269683495344  0.8321680000000000
 Zn10  Zn  0.2599917057458064  0.7908568950156345  0.0256963547476912  0.8322750000000000
 Zn11  Zn  0.2597248110223325  0.9611740892209338  0.2755993903146453  0.8312820000000000
 Zn12  Zn  0.3902874013972178  0.7111521405515103  0.4682846022901605  0.8300330000000000
 Zn13  Zn  0.3900959682654788  0.5408592933454716  0.7183286391199127  0.8321360000000000
 Zn14  Zn  0.2599908512887886  0.7908548774517208  0.5256956655837780  0.8322410000000000
 Zn15  Zn  0.2597249873325935  0.9611749978883676  0.7755980331666985  0.8312460000000000
 Zn16  Zn  0.3902897669148886  0.7111532762621232  0.9682868413978233  0.8300689999999999
 Zn17  Zn  0.8899385343946823  0.0408816025630662  0.2181093623348416  0.8326650000000000
 Zn18  Zn  0.7597470493936986  0.2908908754611627  0.0256995862141745  0.8308950000000001
 Zn19  Zn  0.7595412690948860  0.4611699920279876  0.2756361074551439  0.8312670000000000
 Zn20  Zn  0.8902190644054470  0.2111614944059597  0.4681466423553446  0.8317590000000000
 Zn21  Zn  0.8899376881467159  0.0408794213824911  0.7181078191520194  0.8326700000000000
 Zn22  Zn  0.7597458524055419  0.2908893482667100  0.5256982220721264  0.8309310000000000
 Zn23  Zn  0.7595416494028648  0.4611690107392858  0.7756356656346807  0.8312650000000000
 Zn24  Zn  0.8902175402648991  0.2111606790441057  0.9681447810626145  0.8317470000000000
 Zn25  Zn  0.8899387017381689  0.5408809367359654  0.2181088539037933  0.8326650000000000
 Zn26  Zn  0.7597485636601036  0.7908910659152418  0.0257008541253466  0.8309070000000000
 Zn27  Zn  0.7595414397743803  0.9611696966232630  0.2756367955832373  0.8312410000000000
 Zn28  Zn  0.8902181207622416  0.7111607820659198  0.4681457639129288  0.8317410000000000
 Zn29  Zn  0.8899392208981802  0.5408787017205662  0.7181077417096110  0.8326690000000000
 Zn30  Zn  0.7597445660779206  0.7908888098356883  0.5256978628483018  0.8308990000000001
 Zn31  Zn  0.7595421353108069  0.9611690946125718  0.7756351029272833  0.8312460000000000
 Zn32  Zn  0.8902188807575822  0.7111609552166434  0.9681446328896138  0.8317480000000000