#squcalf20_pbe0-d4_DDEC6
_chemical_name_common                    'squcalf20_pbe0-d4'
_cell_length_a                           21.88429
_cell_length_b                           21.15965
_cell_length_c                           20.83318
_cell_angle_alpha                        89.98820
_cell_angle_beta                         120.66633
_cell_angle_gamma                        90.00765

_symmetry_cell_setting          triclinic
_symmetry_space_group_name_Hall 'P 1'
_symmetry_space_group_name_H-M  'P 1'
_symmetry_Int_Tables_number     1

_symmetry_equiv_pos_as_xyz 'x,y,z'

loop_
   _atom_site_label
   _atom_site_type_symbol
   _atom_site_fract_x
   _atom_site_fract_y
   _atom_site_fract_z
   _atom_site_charge
   C1   C  0.3364053098707884  0.4145626077829737  0.1230350699353634  0.1123890000000000
   C2   C  0.3136270459030318  0.1645463799182441  0.1209153637500116  0.1135150000000000
   C3   C  0.3133389155631033  0.0872040667513828  0.3709365325123550  0.1150920000000000
   C4   C  0.3366099131274919  0.3372474397607359  0.3729346997621195  0.1135580000000000
   C5   C  0.2631348404830156  0.3700519171643532  0.1569741798300157  0.1209650000000000
   C6   C  0.3868441128361245  0.1200641138749066  0.0869128995616755  0.1243960000000000
   C7   C  0.3862351784149355  0.1318618503842336  0.3366090713394922  0.1243950000000000
   C8   C  0.2635751404123205  0.3817904748214588  0.4071322120442880  0.1226050000000000
   C9   C  0.1230284680228886  0.0078925518113441  0.3041620878031145  0.1409080000000000
  C10   C  0.1085753809117116  0.2675644987097194 -0.0242128351611993  0.1361990000000000
  C11   C  0.1083299392731856 -0.0165840571391570  0.2267747052748519  0.1371310000000000
  C12   C  0.1232742742040214  0.2429579456283097  0.0531147214043668  0.1439960000000000
  C13   C  0.0416830143580162  0.2330523335929960  0.0175574760240099  0.1384530000000000
  C14   C  0.0269634560425419  0.2576727897054035 -0.0597576825455266  0.1402370000000000
  C15   C  0.0413892534625801  0.0176783566517926  0.2685752845308222  0.1389700000000000
  C16   C  0.0267370752924756 -0.0068558631329621  0.1912871028447851  0.1443720000000000
  C17   C  0.3364065582706500  0.4145616930120420  0.6230363520544437  0.1124040000000000
  C18   C  0.3136281089555034  0.1645439871428440  0.6209175022953434  0.1134110000000000
  C19   C  0.3133394942206021  0.0872038567217127  0.8709354372530616  0.1150500000000000
  C20   C  0.3366076905733589  0.3372469097461181  0.8729320868736258  0.1136090000000000
  C21   C  0.2631347517506188  0.3700523714120330  0.6569743119022138  0.1209590000000000
  C22   C  0.3868439010203806  0.1200621037219232  0.5869130925486382  0.1244320000000000
  C23   C  0.3862382492279134  0.1318604583204034  0.8366107083950066  0.1243360000000000
  C24   C  0.2635754311637903  0.3817917242585415  0.9071314273851090  0.1226100000000000
  C25   C  0.1230277365274158  0.0078964260105116  0.8041610995346153  0.1410320000000000
  C26   C  0.1085754972065727  0.2675647553371674  0.4757851339024896  0.1361510000000000
  C27   C  0.1083312567169342 -0.0165689208591611  0.7267702462527288  0.1371500000000000
  C28   C  0.1232745734972547  0.2429578891135135  0.5531131176093583  0.1440600000000000
  C29   C  0.0416834184100927  0.2330526964742405  0.5175559041151111  0.1383280000000000
  C30   C  0.0269626820203476  0.2576735251372010  0.4402405011961200  0.1403980000000000
  C31   C  0.0413877661244611  0.0176781922939530  0.7685737815603473  0.1389670000000000
  C32   C  0.0267368289310678 -0.0068509750073991  0.6912841115106088  0.1444090000000000
  C33   C  0.3364052673016739  0.9145638285877085  0.1230355418470146  0.1123350000000000
  C34   C  0.3136294812867061  0.6645460219675458  0.1209178786904294  0.1134120000000000
  C35   C  0.3133397172648665  0.5872038809922326  0.3709368213332546  0.1150840000000000
  C36   C  0.3366099966589226  0.8372474813928038  0.3729348217210128  0.1136240000000000
  C37   C  0.2631348044603843  0.8700536833670933  0.1569748691797951  0.1209580000000000
  C38   C  0.3868435525778267  0.6200631984209309  0.0869122777587575  0.1244780000000000
  C39   C  0.3862364140699628  0.6318605743785303  0.3366094239597587  0.1244190000000000
  C40   C  0.2635767350486089  0.8817912723850905  0.4071336115750026  0.1226310000000000
  C41   C  0.1230286948978339  0.5078952784773058  0.3041621251041436  0.1410010000000000
  C42   C  0.1085759236146111  0.7675647511415969 -0.0242131568651837  0.1361820000000000
  C43   C  0.1083311216614874  0.4834257045740881  0.2267720636473635  0.1370400000000000
  C44   C  0.1232768218826783  0.7429578384637391  0.0531163337149985  0.1440530000000000
  C45   C  0.0416842086298027  0.7330522401022080  0.0175584854353794  0.1383570000000000
  C46   C  0.0269625428383371  0.7576727905486644 -0.0597581809196662  0.1402680000000000
  C47   C  0.0413887682993089  0.5176783559270629  0.2685748764142940  0.1389900000000000
  C48   C  0.0267369751284050  0.4931473815491193  0.1912854213067200  0.1444640000000000
  C49   C  0.3364062158787244  0.9145610675312204  0.6230358828581113  0.1124250000000000
  C50   C  0.3136270576557534  0.6645439132396581  0.6209162277023066  0.1133800000000000
  C51   C  0.3133401361095600  0.5872048140667364  0.8709364715214059  0.1151510000000000
  C52   C  0.3366089194224467  0.8372480198351265  0.8729336251971929  0.1136070000000000
  C53   C  0.2631338519598487  0.8700517444927813  0.6569734157500392  0.1209420000000000
  C54   C  0.3868430327657263  0.6200627544298019  0.5869119112530928  0.1244030000000000
  C55   C  0.3862369733710309  0.6318618410526631  0.8366094503476569  0.1245180000000000
  C56   C  0.2635743243444128  0.8817908199029998  0.9071311261922194  0.1225980000000000
  C57   C  0.1230306190666625  0.5078957457457446  0.8041642275003481  0.1409730000000000
  C58   C  0.1085740603111590  0.7675647027973588  0.4757836077535302  0.1362440000000000
  C59   C  0.1083311689922264  0.4834264420638753  0.7267715224656787  0.1370560000000000
  C60   C  0.1232738774768747  0.7429576483748260  0.5531125918402480  0.1439730000000000
  C61   C  0.0416819017923470  0.7330529897446265  0.5175548882530844  0.1384470000000000
  C62   C  0.0269603542475429  0.7576736701083794  0.4402385589297845  0.1402540000000000
  C63   C  0.0413883295618682  0.5176781345761239  0.7685750491720587  0.1389590000000000
  C64   C  0.0267344333325664  0.4931467516368584  0.6912833009114034  0.1444300000000000
  C65   C  0.8362881190610397  0.4145747866296830  0.1230276020890357  0.1124690000000000
  C66   C  0.8135005129881324  0.1645892684875359  0.1208117853907278  0.1118460000000000
  C67   C  0.8132453319319521  0.0872077217487500  0.3708782011936402  0.1112200000000000
  C68   C  0.8365417009072559  0.3372516017335782  0.3729474996238454  0.1109510000000000
  C69   C  0.7630190487524781  0.3700704908799885  0.1569709955040849  0.1214300000000000
  C70   C  0.8867057619011222  0.1201058881312282  0.0867980473115026  0.1205360000000000
  C71   C  0.8861334297962001  0.1318347889310376  0.3365222476274995  0.1189630000000000
  C72   C  0.7635156556406302  0.3817736594840563  0.4071655235476300  0.1201840000000000
  C73   C  0.6230326828057596  0.0077371723175212  0.3041063750051629  0.1361940000000000
  C74   C  0.6084214472950870  0.2675585831998930 -0.0243574915658514  0.1396720000000000
  C75   C  0.6082550444440871 -0.0166423732493778  0.2266710535011676  0.1407850000000000
  C76   C  0.6232215105456513  0.2429501251950240  0.0530025347922035  0.1390630000000000
  C77   C  0.5416644734109936  0.2329743305345267  0.0175417223004177  0.1429660000000000
  C78   C  0.5268325895568403  0.2576094621900863 -0.0598120513844888  0.1368380000000000
  C79   C  0.5414257862822128  0.0176275572566948  0.2685948601631724  0.1394140000000000
  C80   C  0.5266875515367964 -0.0068573887749288  0.1912347716216115  0.1405910000000000
  C81   C  0.8362878090421049  0.4145730860575694  0.6230276308001699  0.1126140000000000
  C82   C  0.8134998548125187  0.1645874984314284  0.6208105624713103  0.1118170000000000
  C83   C  0.8132442202461273  0.0872072737558047  0.8708758917994993  0.1111430000000000
  C84   C  0.8365421364802086  0.3372513482526536  0.8729465989546427  0.1109860000000000
  C85   C  0.7630184737648079  0.3700696660438368  0.6569712647174795  0.1214070000000000
  C86   C  0.8867070365112958  0.1201053521608479  0.5867988586069328  0.1204140000000000
  C87   C  0.8861355304235138  0.1318333820138196  0.8365232101850716  0.1189920000000000
  C88   C  0.7635193905622591  0.3817753834918091  0.9071680712573579  0.1202060000000000
  C89   C  0.6230311500026441  0.0077388190041088  0.8041048848430266  0.1361390000000000
  C90   C  0.6084217359236077  0.2675574666444182  0.4756449398482695  0.1396690000000000
  C91   C  0.6082553418719051 -0.0166372523705451  0.7266697543566288  0.1408210000000000
  C92   C  0.6232226244693577  0.2429493828591633  0.5530035914097200  0.1390710000000000
  C93   C  0.5416653187150040  0.2329729366448847  0.5175442903840413  0.1429840000000000
  C94   C  0.5268351242822338  0.2576084593061997  0.4401908762274888  0.1368010000000000
  C95   C  0.5414265961455094  0.0176272999227216  0.7685956023799732  0.1394360000000000
  C96   C  0.5266890941657680 -0.0068553042125660  0.6912370603118496  0.1405920000000000
  C97   C  0.8362883317905618  0.9145758138457856  0.1230282708922116  0.1125050000000000
  C98   C  0.8135024021201109  0.6645893688158778  0.1208129470673880  0.1118320000000000
  C99   C  0.8132455869059602  0.5872073008604289  0.3708776004172189  0.1112080000000000
 C100   C  0.8365413687843063  0.8372514888413890  0.3729475465804432  0.1109720000000000
 C101   C  0.7630198938479117  0.8700709283697149  0.1569722074064692  0.1213180000000000
 C102   C  0.8867055851208648  0.6201054530572288  0.0867970368704744  0.1204850000000000
 C103   C  0.8861343653594100  0.6318338677135111  0.3365226306595453  0.1190230000000000
 C104   C  0.7635157759927111  0.8817739863601427  0.4071659819909462  0.1201620000000000
 C105   C  0.6230334791765713  0.5077394963188551  0.3041074415053902  0.1362400000000000
 C106   C  0.6084234340943725  0.7675585702391222 -0.0243559721719461  0.1397070000000000
 C107   C  0.6082557494422171  0.4833639493936085  0.2266704572264197  0.1407340000000000
 C108   C  0.6232235268965580  0.7429497072595587  0.0530042615790909  0.1390170000000000
 C109   C  0.5416658248280880  0.7329740851224494  0.0175425761748379  0.1429070000000000
 C110   C  0.5268341253254665  0.7576097422870705 -0.0598113725790968  0.1367790000000000
 C111   C  0.5414259741729550  0.5176280983584468  0.2685960850057817  0.1394040000000000
 C112   C  0.5266876681392788  0.4931450219642255  0.1912349949857586  0.1406040000000000
 C113   C  0.8362880774037068  0.9145736549020856  0.6230271774513836  0.1126520000000000
 C114   C  0.8135011946844328  0.6645874494088188  0.6208119979677729  0.1118140000000000
 C115   C  0.8132439813859562  0.5872078197644308  0.8708759324377591  0.1111230000000000
 C116   C  0.8365409800951410  0.8372519610434853  0.8729452591685383  0.1110000000000000
 C117   C  0.7630192857834489  0.8700697755134026  0.6569709960547681  0.1213180000000000
 C118   C  0.8867051950839585  0.6201043551416682  0.5867971198943339  0.1204830000000000
 C119   C  0.8861345633355758  0.6318328462490247  0.8365222351851659  0.1190630000000000
 C120   C  0.7635174432527313  0.8817750255464903  0.9071661396755361  0.1201790000000000
 C121   C  0.6230317658658366  0.5077370048532259  0.8041061516860414  0.1361400000000000
 C122   C  0.6084213055816807  0.7675574212040889  0.4756448582629404  0.1397030000000000
 C123   C  0.6082548230411212  0.4833553128415634  0.7266721862884198  0.1408130000000000
 C124   C  0.6232235618164802  0.7429491019630787  0.5530048373307257  0.1390590000000000
 C125   C  0.5416649907769859  0.7329726913951257  0.5175446863102804  0.1429380000000000
 C126   C  0.5268334941760355  0.7576082579601872  0.4401897939531503  0.1367610000000000
 C127   C  0.5414268276290692  0.5176271762723018  0.7685960787631897  0.1394080000000000
 C128   C  0.5266885860757835  0.4931418352842654  0.6912377078725050  0.1406050000000000
   H1   H  0.3707054070892538  0.4246563880696290  0.0965504847961194  0.1216570000000000
   H2   H  0.2793349302540322  0.1746343125471854  0.1474091026338283  0.1209620000000000
   H3   H  0.2792606899231059  0.0769317240341347  0.3976455747337236  0.1199110000000000
   H4   H  0.3706946635742543  0.3270427202496019  0.3462279129720894  0.1207690000000000
   H5   H  0.2244076934459115  0.3348427404486791  0.1603448685407309  0.1214390000000000
   H6   H  0.4255641960453101  0.0848884123210616  0.0835088298422858  0.1200570000000000
   H7   H  0.4248681482478441  0.1671133845969071  0.3331238820979517  0.1202650000000000
   H8   H  0.2248861100178861  0.4170063457301054  0.4105603983056147  0.1202580000000000
   H9   H  0.3707073866166781  0.4246552122118583  0.5965523795855754  0.1217080000000000
  H10   H  0.2793369002961160  0.1746310481943736  0.6474123317735394  0.1209410000000000
  H11   H  0.2792592173628049  0.0769327044615402  0.8976426016350986  0.1198800000000000
  H12   H  0.3706914073037046  0.3270415369187286  0.8462245552964685  0.1208180000000000
  H13   H  0.2244068329167670  0.3348443861035164  0.6603452313856546  0.1213810000000000
  H14   H  0.4255635467574110  0.0848861072073827  0.5835082267867435  0.1200790000000000
  H15   H  0.4248718161647070  0.1671110148876576  0.8331257985215631  0.1203080000000000
  H16   H  0.2248877959868898  0.4170085435203899  0.9105603529079923  0.1202510000000000
  H17   H  0.3707054679416614  0.9246575174630218  0.0965511893388146  0.1216900000000000
  H18   H  0.2793389484895793  0.6746341724170200  0.1474129334850629  0.1209410000000000
  H19   H  0.2792605833338677  0.5769316837873706  0.3976445255984769  0.1198840000000000
  H20   H  0.3706941112341926  0.8270422869764503  0.3462274086637269  0.1207830000000000
  H21   H  0.2244072739657757  0.8348449513579854  0.1603459297609598  0.1213930000000000
  H22   H  0.4255623234097271  0.5848866771371009  0.0835073736321158  0.1200600000000000
  H23   H  0.4248695958881500  0.6671121907122974  0.3331244954645227  0.1202900000000000
  H24   H  0.2248885031075119  0.9170076401309147  0.4105622345692370  0.1202020000000000
  H25   H  0.3707071336771103  0.9246540383484705  0.5965519641760294  0.1217470000000000
  H26   H  0.2793359102387761  0.6746314015086587  0.6474107317384256  0.1209050000000000
  H27   H  0.2792610278577398  0.5769330117142702  0.8976444116124687  0.1198320000000000
  H28   H  0.3706934621532399  0.8270429447644770  0.8462272609203445  0.1208500000000000
  H29   H  0.2244056515818351  0.8348437175736176  0.6603441601626352  0.1213490000000000
  H30   H  0.4255630976966880  0.5848865753457005  0.5835079591653101  0.1201060000000000
  H31   H  0.4248700116360045  0.6671136034314786  0.8331248723257845  0.1203260000000000
  H32   H  0.2248853534611156  0.9170070040512208  0.9105587564301504  0.1202260000000000
  H33   H  0.8706310869131778  0.4246664163850075  0.0965886707897469  0.1210630000000000
  H34   H  0.7792383818625637  0.1746843947823941  0.1473365861795632  0.1214350000000000
  H35   H  0.7792184798140105  0.0769379514745111  0.3976457052585705  0.1216120000000000
  H36   H  0.8706492392894281  0.3270580807697837  0.3462599267407886  0.1213080000000000
  H37   H  0.7243198387549785  0.3348412293347853  0.1603558625238691  0.1200650000000000
  H38   H  0.9254494939487499  0.0849315816099333  0.0834320561513928  0.1207300000000000
  H39   H  0.9248042335233070  0.1670612001323345  0.3330661708387566  0.1204820000000000
  H40   H  0.7248374939819278  0.4169922110371094  0.4106035210357923  0.1198760000000000
  H41   H  0.8706303618238956  0.4246636649582115  0.5965883015263568  0.1210850000000000
  H42   H  0.7792371712008650  0.1746818420101625  0.6473348473088654  0.1214120000000000
  H43   H  0.7792154138055789  0.0769380529867864  0.8976420801388513  0.1216120000000000
  H44   H  0.8706483573218364  0.3270564822219512  0.8462579119831961  0.1213240000000000
  H45   H  0.7243191833270157  0.3348401319289344  0.6603558228457417  0.1200360000000000
  H46   H  0.9254514659765434  0.0849319229034296  0.5834332306784760  0.1207930000000000
  H47   H  0.9248074831995020  0.1670582411545615  0.8330674663864348  0.1205330000000000
  H48   H  0.7248425158912767  0.4169956719658344  0.9106069553365916  0.1198370000000000
  H49   H  0.8706310344943456  0.9246673806174110  0.0965889029458882  0.1211060000000000
  H50   H  0.7792408995866905  0.6746853528240239  0.1473381038206749  0.1214090000000000
  H51   H  0.7792179222375537  0.5769375506713499  0.3976442121556039  0.1215910000000000
  H52   H  0.8706487513991090  0.8270574213968225  0.3462597812839998  0.1213250000000000
  H53   H  0.7243210161343510  0.8348414457024811  0.1603574193048686  0.1200280000000000
  H54   H  0.9254485373114765  0.5849307302774100  0.0834303952814655  0.1207710000000000
  H55   H  0.9248053400869329  0.6670597998043857  0.3330666895134224  0.1205040000000000
  H56   H  0.7248378536962695  0.9169929213804846  0.4106038611293258  0.1198640000000000
  H57   H  0.8706306173719747  0.9246644782572474  0.5965878238458898  0.1211190000000000
  H58   H  0.7792397968236715  0.6746825345254841  0.6473374374027294  0.1213790000000000
  H59   H  0.7792159099132882  0.5769380258801565  0.8976424818713445  0.1215860000000000
  H60   H  0.8706470496315692  0.8270576474885335  0.8462564107875290  0.1213830000000000
  H61   H  0.7243200587341985  0.8348402679133787  0.6603559430221764  0.1200030000000000
  H62   H  0.9254485310812328  0.5849304291876558  0.5834305437861428  0.1208050000000000
  H63   H  0.9248069094575232  0.6670571070846543  0.8330665912393784  0.1205580000000000
  H64   H  0.7248401054421435  0.9169949065627196  0.9106044191176655  0.1198570000000000
   N1   N  0.3378370172727806  0.4541897809140408  0.1779911659514075 -0.1351710000000000
   N2   N  0.3121418412480211  0.2041716623637483  0.0659140448591731 -0.1368350000000000
   N3   N  0.3117412765110954  0.0476646270954224  0.3158266176147252 -0.1357360000000000
   N4   N  0.3382653479383325  0.2977051740629035  0.4280920558289935 -0.1354410000000000
   N5   N  0.2900727581000319  0.4250353674700462  0.2002596757697300 -0.1374980000000000
   N6   N  0.3598628603601584  0.1750373494508964  0.0436025167345399 -0.1386170000000000
   N7   N  0.3592386663150543  0.0769202640449465  0.2932880408843911 -0.1401320000000000
   N8   N  0.2906565954426098  0.3268850332930029  0.4505351797695517 -0.1391340000000000
   N9   N  0.2905300107413858  0.3612739898995611  0.1079888217281910 -0.2354500000000000
  N10   N  0.3595228289727199  0.1112766897245071  0.1359682792657711 -0.2351220000000000
  N11   N  0.3591143598852747  0.1405450669387491  0.3858530082479311 -0.2360770000000000
  N12   N  0.2907277593416540  0.3905150982682661  0.3579205186040153 -0.2350690000000000
  N13   N  0.3378380015348588  0.4541893388365092  0.6779918654447658 -0.1351210000000000
  N14   N  0.3121424394338191  0.2041698743475264  0.5659162555176511 -0.1368310000000000
  N15   N  0.3117442411155628  0.0476632099577196  0.8158281653854055 -0.1357390000000000
  N16   N  0.3382627436017536  0.2977045732322158  0.9280892961888757 -0.1354600000000000
  N17   N  0.2900727938868630  0.4250358391804801  0.7002595978866308 -0.1376170000000000
  N18   N  0.3598628669712591  0.1750356306925235  0.5436035092538208 -0.1385440000000000
  N19   N  0.3592429690044106  0.0769181680689826  0.7932910572789863 -0.1401060000000000
  N20   N  0.2906557532853097  0.3268856050237546  0.9505335348079577 -0.1392670000000000
  N21   N  0.2905307948191018  0.3612735684248580  0.6079897286772394 -0.2354220000000000
  N22   N  0.3595237095103241  0.1112739566468775  0.6359690824739018 -0.2351510000000000
  N23   N  0.3591151052388451  0.1405451599549576  0.8858521987785088 -0.2360180000000000
  N24   N  0.2907273106727872  0.3905156448544985  0.8579191545175203 -0.2350520000000000
  N25   N  0.3378364966677551  0.9541913757090975  0.1779910874437973 -0.1350030000000000
  N26   N  0.3121441064350954  0.7041718070780141  0.0659165419061338 -0.1368020000000000
  N27   N  0.3117433086451352  0.5476638182854217  0.3158279351944534 -0.1357900000000000
  N28   N  0.3382642278550859  0.7977043720620367  0.4280910825402074 -0.1354500000000000
  N29   N  0.2900720935312812  0.9250372504309031  0.2002596662431867 -0.1376090000000000
  N30   N  0.3598631314249358  0.6750371900873416  0.0436029735559149 -0.1386460000000000
  N31   N  0.3592407407456027  0.5769187507407553  0.2932892396620935 -0.1401580000000000
  N32   N  0.2906566703462585  0.8268845580639785  0.4505350013091782 -0.1391670000000000
  N33   N  0.2905302523439219  0.8612750707014440  0.1079897694637366 -0.2354010000000000
  N34   N  0.3595234563233289  0.6112756761831734  0.1359687966969430 -0.2351030000000000
  N35   N  0.3591149273030542  0.6405447848787515  0.3858527824636159 -0.2360530000000000
  N36   N  0.2907298885490960  0.8905159343480099  0.3579224225247589 -0.2350760000000000
  N37   N  0.3378376684636693  0.9541885739396044  0.6779913961926337 -0.1350550000000000
  N38   N  0.3121409967566898  0.7041694212309637  0.5659142446606013 -0.1368270000000000
  N39   N  0.3117440751128407  0.5476645008910074  0.8158282228151947 -0.1358290000000000
  N40   N  0.3382645615939635  0.7977058635218741  0.9280917460877386 -0.1354540000000000
  N41   N  0.2900719610983211  0.9250347834234000  0.7002588943062481 -0.1376160000000000
  N42   N  0.3598615184893991  0.6750358020869434  0.5436015911352268 -0.1384520000000000
  N43   N  0.3592417686127428  0.5769197119952525  0.7932896860155183 -0.1401480000000000
  N44   N  0.2906562227735611  0.8268854124076791  0.9505346490016545 -0.1392890000000000
  N45   N  0.2905298324454635  0.8612728514263510  0.6079889563308143 -0.2354570000000000
  N46   N  0.3595230020418050  0.6112745847018404  0.6359682934145868 -0.2351460000000000
  N47   N  0.3591150498209073  0.6405461137811129  0.8858524097678017 -0.2361770000000000
  N48   N  0.2907266766575108  0.8905152502040601  0.8579190914736590 -0.2350120000000000
  N49   N  0.8376937427972783  0.4542072769733260  0.1779633323208614 -0.1382830000000000
  N50   N  0.8120098735932122  0.2042132051570816  0.0658087916753654 -0.1371990000000000
  N51   N  0.8115850085081658  0.0476821290874434  0.3157246214088214 -0.1361840000000000
  N52   N  0.8381717832580832  0.2976912899359348  0.4280770784030972 -0.1367890000000000
  N53   N  0.7899285310461379  0.4250630960961892  0.2002400656841992 -0.1359030000000000
  N54   N  0.8597297076554354  0.1750780680565949  0.0434824482891499 -0.1354480000000000
  N55   N  0.8590832326459592  0.0769159400671367  0.2931636675778592 -0.1357890000000000
  N56   N  0.7905703417628147  0.3268570752629700  0.4505423042249745 -0.1351890000000000
  N57   N  0.7904139197050457  0.3612857191141093  0.1079847219734723 -0.2332530000000000
  N58   N  0.8593808193096996  0.1113168145447440  0.1358502129394973 -0.2335930000000000
  N59   N  0.8590496464694297  0.1405243306847080  0.3857988901193287 -0.2325740000000000
  N60   N  0.7906689616001239  0.3905222679082183  0.3579544064528647 -0.2330410000000000
  N61   N  0.8376930422109999  0.4542064529199781  0.6779625680903127 -0.1383260000000000
  N62   N  0.8120099108145027  0.2042120599462974  0.5658085073017344 -0.1372530000000000
  N63   N  0.8115842485834894  0.0476817523114123  0.8157230656984359 -0.1361450000000000
  N64   N  0.8381720038551023  0.2976911887745806  0.9280766277115908 -0.1367890000000000
  N65   N  0.7899273422254166  0.4250627291656582  0.7002393475504466 -0.1359420000000000
  N66   N  0.8597311102311037  0.1750776596817410  0.5434835374913644 -0.1352180000000000
  N67   N  0.8590844786941890  0.0769148810135136  0.7931640466719246 -0.1357660000000000
  N68   N  0.7905728464035641  0.3268581561978717  0.9505439992063138 -0.1353100000000000
  N69   N  0.7904135892650072  0.3612838574459036  0.6079855028980947 -0.2332920000000000
  N70   N  0.8593806527344655  0.1113153360173552  0.6358495529316552 -0.2336320000000000
  N71   N  0.8590500859404445  0.1405232563879789  0.8857984241475376 -0.2326100000000000
  N72   N  0.7906714337498225  0.3905230593283944  0.8579556857544038 -0.2329510000000000
  N73   N  0.8376938485502359  0.9542082649513013  0.1779637961258698 -0.1382000000000000
  N74   N  0.8120116934361699  0.7042133709490870  0.0658098814228865 -0.1372440000000000
  N75   N  0.8115859713435326  0.5476814246242910  0.3157247201258400 -0.1362630000000000
  N76   N  0.8381704393321810  0.7976907163099082  0.4280763245958694 -0.1367760000000000
  N77   N  0.7899288672494786  0.9250636953195679  0.2002409125527297 -0.1358970000000000
  N78   N  0.8597300267037272  0.6750780489287600  0.0434820427740370 -0.1353460000000000
  N79   N  0.8590843810892244  0.5769148217209661  0.2931642413605118 -0.1358090000000000
  N80   N  0.7905695017087526  0.8268565961287393  0.4505417994346051 -0.1352440000000000
  N81   N  0.7904147366228915  0.8612863759246798  0.1079857758345951 -0.2332340000000000
  N82   N  0.8593812611030048  0.6113165396545625  0.1358501319125167 -0.2336270000000000
  N83   N  0.8590498070906705  0.6405238028026664  0.3857986042601064 -0.2325670000000000
  N84   N  0.7906698169443199  0.8905225693629620  0.3579553788644177 -0.2329980000000000
  N85   N  0.8376934244474907  0.9542066804188134  0.6779622669075593 -0.1382340000000000
  N86   N  0.8120102844614521  0.7042118944821640  0.5658093764395581 -0.1372580000000000
  N87   N  0.8115828252678324  0.5476824828738699  0.8157221649495340 -0.1361880000000000
  N88   N  0.8381719224238893  0.7976919725809963  0.9280761523081917 -0.1368890000000000
  N89   N  0.7899279446245533  0.9250624222291616  0.7002393157550570 -0.1359820000000000
  N90   N  0.8597294055145357  0.6750768736124375  0.5434822456430792 -0.1352120000000000
  N91   N  0.8590827153650882  0.5769147567882501  0.7931624947969855 -0.1357810000000000
  N92   N  0.7905723763721070  0.8268582484155219  0.9505430577960163 -0.1353600000000000
  N93   N  0.7904139984745466  0.8612841142731376  0.6079849728161171 -0.2332490000000000
  N94   N  0.8593806062758617  0.6113147910681188  0.6358495924553025 -0.2337070000000000
  N95   N  0.8590498568656683  0.6405230548575687  0.8857984287452857 -0.2326580000000000
  N96   N  0.7906690491194485  0.8905228500898702  0.8579533912142336 -0.2329140000000000
   O1   O -0.0018740032464714  0.0388623045065210  0.2928916083386856 -0.3413240000000000
   O2   O  0.1517226484162500  0.2888040261355821 -0.0486632868413568 -0.3394320000000000
   O3   O  0.1513735236361172 -0.0374873144996196  0.2020440289556013 -0.3395730000000000
   O4   O -0.0014549664940085  0.2118668795170090  0.0420501130528997 -0.3392500000000000
   O5   O  0.1823004974904538  0.0147959344813304  0.3694911637427853 -0.4223630000000000
   O6   O -0.0323776034268562  0.2645507905634296 -0.1250382110279004 -0.4215080000000000
   O7   O -0.0325826669364927 -0.0137142197339469  0.1259774210739708 -0.4241500000000000
   O8   O  0.1825594269849865  0.2361690834961555  0.1184563395584179 -0.4240320000000000
   O9   O -0.0018757438100984  0.0388604678972594  0.7928901388135444 -0.3414070000000000
  O10   O  0.1517233602635139  0.2888038445568450  0.4513354310093167 -0.3393780000000000
  O11   O  0.1513770773191846 -0.0374522533367775  0.7020342286302411 -0.3396190000000000
  O12   O -0.0014537475298096  0.2118672812595066  0.5420490835158740 -0.3392960000000000
  O13   O  0.1822986178637910  0.0147968429299789  0.8694911000577197 -0.4224480000000000
  O14   O -0.0323785097209881  0.2645522660763125  0.3749608383990696 -0.4215390000000000
  O15   O -0.0325820229570456 -0.0137127635237918  0.6259750214062348 -0.4241480000000000
  O16   O  0.1825596486041323  0.2361692251170329  0.6184539959645161 -0.4240780000000000
  O17   O -0.0018743681875377  0.5388611882606847  0.2928913922103138 -0.3413850000000000
  O18   O  0.1517219802389607  0.7888042015317548 -0.0486640786747160 -0.3394030000000000
  O19   O  0.1513756815233207  0.4625351760212641  0.2020373916946569 -0.3395210000000000
  O20   O -0.0014526392171156  0.7118669836258438  0.0420513199269674 -0.3392550000000000
  O21   O  0.1822995886247488  0.5147969496006098  0.3694916462597480 -0.4223670000000000
  O22   O -0.0323778900543090  0.7645505096232276 -0.1250370133925593 -0.4215220000000000
  O23   O -0.0325819673741367  0.4862868551645058  0.1259764445693214 -0.4242450000000000
  O24   O  0.1825611795238807  0.7361692337366010  0.1184563890591056 -0.4240280000000000
  O25   O -0.0018733764787604  0.5388609986262752  0.7928915449502842 -0.3414280000000000
  O26   O  0.1517210347122069  0.7888037521668799  0.4513332380972322 -0.3393780000000000
  O27   O  0.1513741606735730  0.4625382146123410  0.7020357472621294 -0.3394990000000000
  O28   O -0.0014544104650673  0.7118681270600432  0.5420486919314833 -0.3393770000000000
  O29   O  0.1822992883849175  0.5147972165606199  0.8694914194668335 -0.4223780000000000
  O30   O -0.0323800442516040  0.7645522973436369  0.3749595761267071 -0.4214850000000000
  O31   O -0.0325822693169138  0.4862860963839172  0.6259767486105126 -0.4241620000000000
  O32   O  0.1825580322588663  0.7361686568442741  0.6184530079943218 -0.4240280000000000
  O33   O  0.4982697553546148  0.0388328407946960  0.2930353073078599 -0.3391430000000000
  O34   O  0.6515247414283593  0.2888359351527908 -0.0488431020477500 -0.3404510000000000
  O35   O  0.6512680187930926 -0.0375454727627852  0.2019084595881142 -0.3412850000000000
  O36   O  0.4986175298466984  0.2117390609078508  0.0421248588199334 -0.3414310000000000
  O37   O  0.6823499573404554  0.0144883767661337  0.3694251475859728 -0.4196280000000000
  O38   O  0.4674450758752191  0.2644776036055425 -0.1250495745477789 -0.4202860000000000
  O39   O  0.4673735084192673 -0.0136915287612722  0.1259240030433791 -0.4223600000000000
  O40   O  0.6825497534279487  0.2362129825034901  0.1183126094592964 -0.4213590000000000
  O41   O  0.4982694590691648  0.0388312870321883  0.7930364549519713 -0.3391650000000000
  O42   O  0.6515249582501214  0.2888354465357330  0.4511591371951951 -0.3403470000000000
  O43   O  0.6512697010670330 -0.0375350089808533  0.7019051222057354 -0.3412690000000000
  O44   O  0.4986171609164661  0.2117376986668728  0.5421269357083766 -0.3415040000000000
  O45   O  0.6823498972309249  0.0144894837985730  0.8694254033332649 -0.4196260000000000
  O46   O  0.4674471463308466  0.2644767428440183  0.3749525936467746 -0.4202660000000000
  O47   O  0.4673727808486949 -0.0136910498903870  0.6259254871233618 -0.4223390000000000
  O48   O  0.6825524794930569  0.2362123082143260  0.6183139209905397 -0.4214210000000000
  O49   O  0.4982698872051328  0.5388318710204187  0.2930368076824342 -0.3391370000000000
  O50   O  0.6515264215125303  0.7888362245382217 -0.0488414521237486 -0.3404250000000000
  O51   O  0.6512687284407656  0.4624671646321319  0.2019054904455375 -0.3412530000000000
  O52   O  0.4986188279685385  0.7117388833803707  0.0421254832386896 -0.3414180000000000
  O53   O  0.6823501337365381  0.5144894042173834  0.3694263060501433 -0.4196270000000000
  O54   O  0.4674474232339760  0.7644786252129094 -0.1250486082971819 -0.4202610000000000
  O55   O  0.4673738683362205  0.4863091991657658  0.1259250627689215 -0.4223670000000000
  O56   O  0.6825511627674342  0.7362126556514176  0.1183140909151882 -0.4212940000000000
  O57   O  0.4982700721966859  0.5388324781160946  0.7930365790420084 -0.3391790000000000
  O58   O  0.6515234275484325  0.7888356062718307  0.4511587652350217 -0.3403320000000000
  O59   O  0.6512678300699691  0.4624490847278060  0.7019097228511452 -0.3412120000000000
  O60   O  0.4986176276798270  0.7117379242143119  0.5421276646273825 -0.3415280000000000
  O61   O  0.6823501474621082  0.5144895661697270  0.8694256851456840 -0.4196110000000000
  O62   O  0.4674466202384599  0.7644761406427438  0.3749528267177911 -0.4202140000000000
  O63   O  0.4673729498785762  0.4863079920599341  0.6259261688364467 -0.4223530000000000
  O64   O  0.6825522389326862  0.7362124078515986  0.6183139947021200 -0.4213810000000000
  Zn1  Zn  0.3900946152859487  0.0408608563463829  0.2183270367939111  0.5144190000000000
  Zn2  Zn  0.2599906113299064  0.2908575605696435  0.0256941175012344  0.5153880000000000
  Zn3  Zn  0.2597250736248685  0.4611747916654051  0.2755983838639716  0.5146440000000000
  Zn4  Zn  0.3902874212587183  0.2111523023820995  0.4682857412059027  0.5140320000000000
  Zn5  Zn  0.3900955306382572  0.0408581160102870  0.7183287346752600  0.5144420000000000
  Zn6  Zn  0.2599921385114304  0.2908555430398062  0.5256972986343450  0.5154430000000000
  Zn7  Zn  0.2597244215860882  0.4611762392822756  0.7755981819760689  0.5147030000000000
  Zn8  Zn  0.3902885086491331  0.2111528979644037  0.9682852425486077  0.5139710000000000
  Zn9  Zn  0.3900948894209521  0.5408590551555642  0.2183269679779866  0.5144270000000000
 Zn10  Zn  0.2599917056703647  0.7908568948565434  0.0256963547690055  0.5153860000000000
 Zn11  Zn  0.2597248112692572  0.9611740894854749  0.2755993904500012  0.5146530000000000
 Zn12  Zn  0.3902874011578024  0.7111521407454374  0.4682846020592344  0.5140040000000000
 Zn13  Zn  0.3900959682327367  0.5408592931396056  0.7183286390787645  0.5144310000000000
 Zn14  Zn  0.2599908514215555  0.7908548772082692  0.5256956658167917  0.5154280000000000
 Zn15  Zn  0.2597249874438139  0.9611749980412544  0.7755980334908208  0.5146920000000000
 Zn16  Zn  0.3902897667867485  0.7111532763964612  0.9682868411297111  0.5139840000000000
 Zn17  Zn  0.8899385339080533  0.0408816024334960  0.2181093619935048  0.5150100000000000
 Zn18  Zn  0.7597470495150692  0.2908908753411301  0.0256995863733579  0.5159510000000000
 Zn19  Zn  0.7595412692908327  0.4611699922035147  0.2756361076693706  0.5155940000000000
 Zn20  Zn  0.8902190642193042  0.2111614946397243  0.4681466421699613  0.5138779999999999
 Zn21  Zn  0.8899376879729308  0.0408794212411747  0.7181078190508883  0.5150400000000001
 Zn22  Zn  0.7597458525266797  0.2908893481511241  0.5256982221712400  0.5159970000000000
 Zn23  Zn  0.7595416493445146  0.4611690109382294  0.7756356657165280  0.5155260000000000
 Zn24  Zn  0.8902175402365219  0.2111606792362257  0.9681447808664501  0.5138550000000000
 Zn25  Zn  0.8899387015077617  0.5408809366330658  0.2181088536102946  0.5150390000000000
 Zn26  Zn  0.7597485635742336  0.7908910657691410  0.0257008541618529  0.5159840000000000
 Zn27  Zn  0.7595414399951749  0.9611696968973377  0.2756367955739689  0.5155600000000000
 Zn28  Zn  0.8902181204927553  0.7111607822547307  0.4681457637646563  0.5138880000000000
 Zn29  Zn  0.8899392207073286  0.5408787014144465  0.7181077416813927  0.5150720000000000
 Zn30  Zn  0.7597445664972334  0.7908888096586035  0.5256978630563993  0.5159830000000000
 Zn31  Zn  0.7595421352578925  0.9611690947960518  0.7756351030674030  0.5155130000000000
 Zn32  Zn  0.8902188806880623  0.7111609553544536  0.9681446326079325  0.5139230000000000