#squcalf-20_pbe+d3bj_DDEC6
_chemical_name_common                    'squcalf-20_pbe+d3bj'
_cell_length_a                           18.63773
_cell_length_b                           18.44967
_cell_length_c                           27.91142
_cell_angle_alpha                        89.98529
_cell_angle_beta                         135.55213
_cell_angle_gamma                        90.08810

_symmetry_cell_setting          triclinic
_symmetry_space_group_name_Hall 'P 1'
_symmetry_space_group_name_H-M  'P 1'
_symmetry_Int_Tables_number     1

_symmetry_equiv_pos_as_xyz 'x,y,z'

loop_
_atom_site_label
_atom_site_type_symbol
_atom_site_fract_x
_atom_site_fract_y
_atom_site_fract_z
_atom_site_charge
   N1   N  0.0704904801636549 0.3592800065347772  0.4109865635957807 -0.3164830000000000
   N2   N  0.0802388968049057 0.4492931908891320  0.3629439515639655 -0.1891540000000000
   N3   N  0.4782258634948962 0.4364528289296562  0.3236581421698606 -0.1920340000000000
   N4   N  0.4137736860546086 0.1721756340682613  0.1768474896091448 -0.3182410000000000
   N5   N  0.4039508124506644 0.0821224024382093  0.2248513285456421 -0.1893330000000000
   N6   N  0.0059838887911073 0.0949489102321108  0.2641565155754102 -0.1934180000000000
   N7   N  0.1639158867731356 0.1091497238790661  0.4267762874207878 -0.3177840000000000
   N8   N  0.1541988146148179 0.1991721085578746 -0.0252067858115539 -0.1895700000000000
   N9   N  0.2562218127620036 0.1863102898827100  0.0142962758475970 -0.1931480000000000
  N10   N  0.3203333109114928 0.4220147205097073  0.1610128874953961 -0.3175990000000000
  N11   N  0.3300512226403501 0.3321443142593988  0.1128663880489558 -0.1905650000000000
  N12   N  0.2280199787868005 0.3448398395314833  0.0734865125042332 -0.1919300000000000
   C1   C  0.1334808868821581 0.4020127727591563  0.4145531999979110  0.1568570000000000
   C2   C  0.4752045766845036 0.3825442116860751  0.3539984405181139  0.1569870000000000
   C3   C  0.3507601267746656 0.1294468908605414  0.1732677727653435  0.1569380000000000
   C4   C  0.0090239333677041 0.1488743578551098  0.2338362936433755  0.1596750000000000
   C5   C  0.1009344239289156 0.1518899923202899  0.4230784081602474  0.1568550000000000
   C6   C  0.2592182105820665 0.1324019155495938 -0.0160349419148143  0.1596220000000000
   C7   C  0.3833066387069350 0.3794288633614614  0.1645901477434296  0.1570640000000000
   C8   C  0.2250401538381825 0.3986506802030859  0.1038967575452139  0.1577860000000000
   C9   C  0.1747264876777473 0.4881818671917171  0.2728308009506750  0.1606400000000000
  C10   C  0.2495539029388572 0.0373490696064250  0.3311789044611665  0.1634760000000000
  C11   C  0.3095167398264102 0.0430512493495926  0.3150369860732480  0.1626520000000000
  C12   C  0.2347169457189845 0.4938458385888250  0.2567044302274561  0.1621250000000000
  C13   C  0.0594907816790395 0.2384092236751864  0.0651302764189569  0.1616790000000000
  C14   C  0.4841442682146446 0.2863095804067177  0.5059016584199774  0.1622840000000000
  C15   C  0.4239828609385735 0.2927992009180527  0.0218484160253386  0.1614790000000000
  C16   C -0.0006106476290432 0.2449076543698185  0.0811200178396247  0.1617170000000000
   H1   H  0.2164995526434711 0.3965459446948322  0.4528564558054312  0.1302390000000000
   H2   H  0.4048916466994998 0.3608156633062605  0.3355688044628315  0.1239630000000000
   H3   H  0.2677458874874624 0.1349424181739884  0.1349324514540495  0.1299310000000000
   H4   H  0.0793347755905024 0.1706386244091588  0.2522953225786089  0.1236430000000000
   H5   H  0.0178580600495964 0.1464675249153148  0.3845977865394711  0.1301190000000000
   H6   H  0.3295904081867679 0.1106961409972903  0.0025937273789913  0.1230260000000000
   H7   H  0.4663682666019373 0.3849456266819517  0.2030302812282173  0.1306760000000000
   H8   H  0.1547051452665817 0.4202224977045956  0.0854052889313674  0.1234520000000000
  Zn1  Zn  0.1093819935102010 0.2908752237104301  0.4856797258492130  0.7018450000000001
  Zn2  Zn  0.3748458114239855 0.2403876931103560  0.1019413448097286  0.7028790000000000
  Zn3  Zn  0.1248205294576937 0.0409864999380667  0.3517068886831218  0.7026300000000000
  Zn4  Zn  0.3593904589025630 0.4902769560121302  0.2360426253042641  0.7020680000000000
   O1   O  0.0962059083866513 0.4587181571362253  0.2524237695746512 -0.4780970000000000
   O2   O  0.2513711031608569 0.0621475625563868  0.3750131101192272 -0.4176650000000000
   O3   O  0.3879988630033029 0.0725649562459024  0.3354420129897314 -0.4783530000000000
   O4   O  0.2329632406956036 0.4689802009342399  0.2129175017572277 -0.4164320000000000
   O5   O  0.1383346466135386 0.2090005189307551  0.0861649832591842 -0.4794240000000000
   O6   O  0.4819889690806768 0.3099606537835161  0.4616196619202609 -0.4170010000000000
   O7   O  0.3450550352824716 0.3221863380781516  0.0006910970408728 -0.4793840000000000
   O8   O  0.0017178940803539 0.2212139117209571  0.1254814672152722 -0.4166170000000000
  N13   N  0.0704877697282267 0.3592819722010249  0.9109856475148073 -0.3163260000000000
  N14   N  0.0802380806601992 0.4492948988573436  0.8629445439871349 -0.1892050000000000
  N15   N  0.4782279170848110 0.4364503809701245  0.8236587785940326 -0.1922530000000000
  N16   N  0.4137691488310171 0.1721752776684831  0.6768455605122988 -0.3183140000000000
  N17   N  0.4039471320259551 0.0821219765433076  0.7248509206995043 -0.1891780000000000
  N18   N  0.0059828886654677 0.0949479299664790  0.7641565815073860 -0.1933190000000000
  N19   N  0.1639154879629370 0.1091483865740424  0.9267753319855588 -0.3175640000000000
  N20   N  0.1541995149289484 0.1991708891548483  0.4747950457908171 -0.1898680000000000
  N21   N  0.2562222866961464 0.1863083868406420  0.5142984642707192 -0.1931090000000000
  N22   N  0.3203317400847304 0.4220135527584256  0.6610117227902824 -0.3177430000000000
  N23   N  0.3300484483834685 0.3321427035942901  0.6128662387432477 -0.1904960000000000
  N24   N  0.2280175241364542 0.3448375667507187  0.5734871573483112 -0.1918490000000000
  C17   C  0.1334809990559864 0.4020135022053034  0.9145534701503351  0.1569450000000000
  C18   C  0.4752086065540895 0.3825430026348132  0.8540007126946371  0.1569810000000000
  C19   C  0.3507576635225160 0.1294454574880181  0.6732670023412987  0.1566720000000000
  C20   C  0.0090246704221651 0.1488748622014234  0.7338379415080806  0.1597380000000000
  C21   C  0.1009358914238523 0.1518899045607900  0.9230783236074060  0.1564780000000000
  C22   C  0.2592196932218622 0.1324008899936938  0.4839666900198353  0.1596740000000000
  C23   C  0.3833069777988161 0.3794280066336614  0.6645902933259343  0.1571940000000000
  C24   C  0.2250371230421549 0.3986499062160791  0.6038965422622588  0.1576990000000000
  C25   C  0.1747287550913885 0.4881795768253852  0.7728359518175267  0.1606970000000000
  C26   C  0.2495587923552068 0.0373425824224313  0.8311846717285456  0.1635180000000000
  C27   C  0.3095131241102095 0.0430466152918302  0.8150379936876903  0.1625930000000000
  C28   C  0.2347107350396973 0.4938470787333155  0.7567024101101859  0.1619170000000000
  C29   C  0.0594804343354830 0.2384052986189386  0.5651237296612578  0.1613800000000000
  C30   C  0.4841491591764192 0.2863093747626678  1.0059040570636748  0.1626150000000000
  C31   C  0.4239794267735112 0.2927969271058108  0.5218467208571270  0.1616270000000000
  C32   C -0.0006190272457486 0.2449099338059320  0.5811137096248860  0.1617370000000000
   H9   H  0.2165011228288622 0.3965450044420701  0.9528561796044629  0.1303420000000000
  H10   H  0.4048954705192541 0.3608165279707752  0.8355702399904678  0.1238830000000000
  H11   H  0.2677449478784161 0.1349389734724894  0.6349318237678716  0.1298730000000000
  H12   H  0.0793361022287784 0.1706410857842511  0.7522973397141540  0.1236770000000000
  H13   H  0.0178611802759055 0.1464700477043706  0.8845999539115209  0.1301380000000000
  H14   H  0.3295905485713690 0.1106942563295569  0.5025922124579751  0.1231440000000000
  H15   H  0.4663705800204201 0.3849485570061756  0.7030309383465403  0.1307500000000000
  H16   H  0.1547030171111912 0.4202238360033593  0.5854069914725223  0.1233300000000000
  Zn5  Zn  0.1093766010264706 0.2908752872549751  0.9856792168071431  0.7020650000000001
  Zn6  Zn  0.3748370007882901 0.2403891975218214  0.6019381649470750  0.7028910000000000
  Zn7  Zn  0.1248171875759695 0.0409861824359047  0.8517058006835478  0.7027000000000000
  Zn8  Zn  0.3593860503659426 0.4902789488549966  0.7360421626730161  0.7020330000000000
   O9   O  0.0962108642999670 0.4587151141499635  0.7524320335694510 -0.4781420000000000
  O10   O  0.2513774812701967 0.0621439953115380  0.8750184889903084 -0.4177670000000000
  O11   O  0.3879942472098826 0.0725597417916917  0.8354395340645245 -0.4783270000000000
  O12   O  0.2329492919966797 0.4689885958241284  0.7129093354874361 -0.4162880000000000
  O13   O  0.1383224239931206 0.2089886230005218  0.5861573316676763 -0.4791610000000000
  O14   O  0.4819933481003378 0.3099606721785696  0.9616215230353641 -0.4172880000000000
  O15   O  0.3450511988871341 0.3221818275296516  0.5006889188247012 -0.4796170000000000
  O16   O  0.0017116824648903 0.2212193616534151  0.6254772579661241 -0.4164530000000000
  N25   N  0.0704968265532402 0.8592777154280306  0.4109887797199333 -0.3166450000000000
  N26   N  0.0802421338802096 0.9492918994006349  0.3629447102722748 -0.1887920000000000
  N27   N  0.4782275018394679 0.9364552127638652  0.3236599307963321 -0.1920590000000000
  N28   N  0.4137728893536294 0.6721737045417270  0.1768467914999804 -0.3180490000000000
  N29   N  0.4039494474890252 0.5821208495471365  0.2248513506482314 -0.1896130000000000
  N30   N  0.0059858969123229 0.5949496865088483  0.2641572268561326 -0.1933310000000000
  N31   N  0.1639192550975956 0.6091509384051619  0.4267772066210611 -0.3179110000000000
  N32   N  0.1542045049511076 0.6991710018486308 -0.0252031668102200 -0.1896810000000000
  N33   N  0.2562268133568210 0.6863088858261969  0.0142988263956156 -0.1930560000000000
  N34   N  0.3203368131392089 0.9220138370745374  0.1610134491250016 -0.3176340000000000
  N35   N  0.3300531093994923 0.8321416392785146  0.1128674156880486 -0.1906250000000000
  N36   N  0.2280222695613144 0.8448386987787897  0.0734878538169448 -0.1920230000000000
  C33   C  0.1334853914193217 0.9020113176994577  0.4145540174149118  0.1568980000000000
  C34   C  0.4752036571363725 0.8825478589082094  0.3539999014612523  0.1567790000000000
  C35   C  0.3507602186940089 0.6294447876131827  0.1732677444330367  0.1568460000000000
  C36   C  0.0090270616860558 0.6488762812343749  0.2338382157374124  0.1596930000000000
  C37   C  0.1009388451795719 0.6518914963852505  0.4230801034553559  0.1568630000000000
  C38   C  0.2592212851257814 0.6324022968681868 -0.0160346996157797  0.1597540000000000
  C39   C  0.3833090045784254 0.8794268172944251  0.1645907135950184  0.1572180000000000
  C40   C  0.2250428797889379 0.8986504832222542  0.1038980684283310  0.1577940000000000
  C41   C  0.1747268406832408 0.9881862817430265  0.2728279163931978  0.1605870000000000
  C42   C  0.2495563124563957 0.5373430141485951  0.3311818037957527  0.1633270000000000
  C43   C  0.3095143374291952 0.5430449411543860  0.3150364206859722  0.1624720000000000
  C44   C  0.2347244483404723 0.9938478170551911  0.2567062192472773  0.1621910000000000
  C45   C  0.0594930134795219 0.7384096415977501  0.0651327933848997  0.1616920000000000
  C46   C  0.4841501354979020 0.7863082552716454  0.5059059360535376  0.1622920000000000
  C47   C  0.4239896096223186 0.7927986390331968  0.0218528147783689  0.1615180000000000
  C48   C -0.0006068808480241 0.7449071295890510  0.0811213441910359  0.1616730000000000
  H17   H  0.2165043154730911 0.8965465721230261  0.4528573027207436  0.1302620000000000
  H18   H  0.4048891561478679 0.8608222753485579  0.3355695461445122  0.1239200000000000
  H19   H  0.2677471324384855 0.6349391750372333  0.1349327492788973  0.1298700000000000
  H20   H  0.0793384926336648 0.6706416842955732  0.2522979025876227  0.1237620000000000
  H21   H  0.0178626160487520 0.6464703515471337  0.3845998219888142  0.1300720000000000
  H22   H  0.3295913941697773 0.6106961083808043  0.0025909476857745  0.1230440000000000
  H23   H  0.4663706480909684 0.8849435191781586  0.2030314371952109  0.1307150000000000
  H24   H  0.1547090515330002 0.9202239557904406  0.0854077676297607  0.1233990000000000
  Zn9  Zn  0.1093847355282372 0.7908728166625485  0.4856814068047781  0.7019100000000000
 Zn10  Zn  0.3748494648809316 0.7403846110637935  0.1019425619224309  0.7029390000000000
 Zn11  Zn  0.1248173273816396 0.5409860956472136  0.3517054037956523  0.7025140000000000
 Zn12  Zn  0.3593977787846881 0.9902783571372001  0.2360427396904073  0.7022810000000000
  O17   O  0.0962055516064744 0.9587217655300030  0.2524173587235948 -0.4781770000000000
  O18   O  0.2513761227853779 0.5621444555673888  0.3750168762706740 -0.4175640000000000
  O19   O  0.3879963747631600 0.5725586174824820  0.3354400044201645 -0.4780960000000000
  O20   O  0.2329779510208438 0.9689753167281724  0.2129249323079432 -0.4165580000000000
  O21   O  0.1383354343919065 0.7089975086992804  0.0861673476523221 -0.4794400000000000
  O22   O  0.4819912909178481 0.8099602805706849  0.4616212330453519 -0.4168940000000000
  O23   O  0.3450615396359901 0.8221883902199256  0.0006959017247118 -0.4794500000000000
  O24   O  0.0017215783545513 0.7212127161403687  0.1254821897393215 -0.4166720000000000
  N37   N  0.0704933842758287 0.8592785738140742  0.9109871244195592 -0.3165780000000000
  N38   N  0.0802386071840654 0.9492941161030963  0.8629445390935399 -0.1888650000000000
  N39   N  0.4782278909659186 0.9364523922790767  0.8236612406684183 -0.1922630000000000
  N40   N  0.4137720450186231 0.6721744756089560  0.6768457090652429 -0.3182020000000000
  N41   N  0.4039476525367737 0.5821222677447822  0.7248509371896186 -0.1895010000000000
  N42   N  0.0059861078571580 0.5949504279808321  0.7641568472873276 -0.1931500000000000
  N43   N  0.1639178031000187 0.6091511939290613  0.9267751290402774 -0.3177010000000000
  N44   N  0.1542049055329154 0.6991714341666307  0.4747973813518042 -0.1900150000000000
  N45   N  0.2562274265019795 0.6863081413069121  0.5143008182745490 -0.1928580000000000
  N46   N  0.3203348053001451 0.9220122698994079  0.6610144134066660 -0.3177310000000000
  N47   N  0.3300529966228997 0.8321403389068593  0.6128695646353151 -0.1903620000000000
  N48   N  0.2280216000602920 0.8448362493493582  0.5734894524536894 -0.1920960000000000
  C49   C  0.1334832256247597 0.9020127150482881  0.9145535787920965  0.1570140000000000
  C50   C  0.4752081566013156 0.8825443643117825  0.8540027148665467  0.1568890000000000
  C51   C  0.3507601415581442 0.6294464162922392  0.6732677795228721  0.1567870000000000
  C52   C  0.0090287036015127 0.6488776138569886  0.7338388940399828  0.1597380000000000
  C53   C  0.1009387794428944 0.6518912707216241  0.9230795742152822  0.1564940000000000
  C54   C  0.2592233149177118 0.6324009263757745  0.4839681720754228  0.1594970000000000
  C55   C  0.3833095791604338 0.8794262178030127  0.6645928307208314  0.1572730000000000
  C56   C  0.2250404202487292 0.8986485155634788  0.6038987175506425  0.1576720000000000
  C57   C  0.1747274157699689 0.9881821935519083  0.7728348519414046  0.1607930000000000
  C58   C  0.2495610379129398 0.5373392512430318  0.8311859955352835  0.1634130000000000
  C59   C  0.3095140723644364 0.5430431414149628  0.8150381685040240  0.1625670000000000
  C60   C  0.2347113862866790 0.9938497274384894  0.7567023248894064  0.1621540000000000
  C61   C  0.0594820732634867 0.7384057467514183  0.5651237218145736  0.1613910000000000
  C62   C  0.4841535093544200 0.7863088480699217  1.0059069185872966  0.1624880000000000
  C63   C  0.4239874312748770 0.7927964356883191  0.5218535356564735  0.1617280000000000
  C64   C -0.0006180926729927 0.7449097925787613  0.5811134992611388  0.1616760000000000
  H25   H  0.2165029847313454 0.8965456086086409  0.9528583211408967  0.1303730000000000
  H26   H  0.4048949745379325 0.8608181859077143  0.8355724950358957  0.1237850000000000
  H27   H  0.2677480552627217 0.6349402795734533  0.6349339040596724  0.1297120000000000
  H28   H  0.0793409886885288 0.6706427040283512  0.7522986037827146  0.1237910000000000
  H29   H  0.0178635330439543 0.6464704140043742  0.8846010572266927  0.1300680000000000
  H30   H  0.3295926810409177 0.6106929053421714  0.5025926394514519  0.1233120000000000
  H31   H  0.4663726539723404 0.8849452539154058  0.7030336761797967  0.1307940000000000
  H32   H  0.1547060766476651 0.9202237808714886  0.5854079868194502  0.1232890000000000
 Zn13  Zn  0.1093867434093382 0.7908720825627772  0.9856838276989988  0.7021490000000000
 Zn14  Zn  0.3748477998856284 0.7403867749798388  0.6019414718093746  0.7028540000000000
 Zn15  Zn  0.1248161990746263 0.5409859396744464  0.8517053561135222  0.7024640000000000
 Zn16  Zn  0.3593888154015191 0.9902794937559907  0.7360441936660937  0.7022360000000000
  O25   O  0.0962092823411174 0.9587166967739991  0.7524305306537640 -0.4783400000000000
  O26   O  0.2513817363261548 0.5621423602641910  0.8750203899458530 -0.4176500000000000
  O27   O  0.3879934851448373 0.5725564627877902  0.8354389635738264 -0.4781170000000000
  O28   O  0.2329514337431941 0.9689897100580109  0.7129103797230167 -0.4164580000000000
  O29   O  0.1383251945020210 0.7089903472697759  0.5861581909031536 -0.4791150000000000
  O30   O  0.4819952441787537 0.8099615911938135  0.9616231347606232 -0.4171370000000000
  O31   O  0.3450599753809072 0.8221847241843542  0.5006984894368766 -0.4797170000000000
  O32   O  0.0017116467223270 0.7212199491389489  0.6254771603264785 -0.4165110000000000
  N49   N  0.5704904569778203 0.3592802870880570  0.4109853810804998 -0.3165950000000000
  N50   N  0.5802390770068455 0.4492930602113726  0.3629439417715346 -0.1891880000000000
  N51   N  0.9782255219010854 0.4364526061490499  0.3236580447430627 -0.1920320000000000
  N52   N  0.9137686922941138 0.1721722834677581  0.1768440611410332 -0.3181460000000000
  N53   N  0.9039469132676043 0.0821205834276682  0.2248512816202311 -0.1892920000000000
  N54   N  0.5059879791552991 0.0949517896374777  0.2641577042725289 -0.1933860000000000
  N55   N  0.6639185015691154 0.1091502916175106  0.4267755972383304 -0.3177770000000000
  N56   N  0.6542049933632861 0.1991706955288797 -0.0252021591857194 -0.1896610000000000
  N57   N  0.7562270865194982 0.1863075157988034  0.0143013053415205 -0.1931490000000000
  N58   N  0.8203310078534767 0.4220135925395153  0.1610115400264645 -0.3176320000000000
  N59   N  0.8300499269556890 0.3321386430727801  0.1128690242635518 -0.1906650000000000
  N60   N  0.7280183725454648 0.3448350364034509  0.0734883351814541 -0.1918710000000000
  C65   C  0.6334837242064794 0.4020124388649685  0.4145534207382207  0.1569250000000000
  C66   C  0.9752065808239487 0.3825446238852661  0.3539996033061887  0.1570070000000000
  C67   C  0.8507579345119209 0.1294433558384407  0.1732666488309645  0.1567830000000000
  C68   C  0.5090309239048131 0.1488795150214577  0.2338401539857821  0.1596130000000000
  C69   C  0.6009396082476735 0.1518917371994019  0.4230790572309333  0.1568150000000000
  C70   C  0.7592223078410505 0.1324006518044599 -0.0160314953656845  0.1597620000000000
  C71   C  0.8833059073723042 0.3794255825484983  0.1645911759203138  0.1571720000000000
  C72   C  0.7250364811152439 0.3986487859114134  0.1038960891609441  0.1578020000000000
  C73   C  0.6747263009336152 0.4881798113463233  0.2728339577222422  0.1606790000000000
  C74   C  0.7495668022172085 0.0373331845420283  0.3311909845734393  0.1634590000000000
  C75   C  0.8095113718262043 0.0430392235423847  0.3150377655330809  0.1627360000000000
  C76   C  0.7347113116282982 0.4938482365836858  0.2567017303337475  0.1620040000000000
  C77   C  0.5594773319643680 0.2384030184408301  0.0651208963314163  0.1613680000000000
  C78   C  0.9841528387405343 0.2863096938776334  0.5059081454485146  0.1623230000000000
  C79   C  0.9239949537757045 0.2927933812951206  0.0218598418902705  0.1615320000000000
  C80   C  0.4993785533188402 0.2449094857357794  0.0811102075641521  0.1618470000000000
  H33   H  0.7165057091324862 0.3965455557820219  0.4528579718442407  0.1302530000000000
  H34   H  0.9048954721287958 0.3608158939806145  0.3355697022434650  0.1239110000000000
  H35   H  0.7677460799907780 0.1349358116395358  0.1349318724723540  0.1299120000000000
  H36   H  0.5793441736301351 0.1706454178956451  0.2523012433577196  0.1237180000000000
  H37   H  0.5178651451958867 0.1464715507542741  0.3845995951184590  0.1301510000000000
  H38   H  0.8295899928080995 0.1106927693558072  0.0025913713783877  0.1230220000000000
  H39   H  0.9663687910750646 0.3849437520850614  0.2030321200499153  0.1306550000000000
  H40   H  0.6547007340845367 0.4202239120473441  0.0854036094524676  0.1233860000000000
 Zn17  Zn  0.6093815472623318 0.2908717266641528  0.4856780139861561  0.7019130000000000
 Zn18  Zn  0.8748461669369250 0.2403862647446690  0.1019386697015270  0.7030050000000000
 Zn19  Zn  0.6248180439715462 0.0409844405534735  0.3517055517152183  0.7026400000000000
 Zn20  Zn  0.8593903891060645 0.4902786668329193  0.2360431425533712  0.7020160000000000
  O33   O  0.5962105281309646 0.4587176648599990  0.2524290257463523 -0.4781140000000000
  O34   O  0.7513896672007790 0.0621365179276036  0.3750268086761523 -0.4176840000000000
  O35   O  0.8879905557622069 0.0725541295120219  0.3354375325915223 -0.4783440000000000
  O36   O  0.7329517990066472 0.4689885510071395  0.2129111879252120 -0.4163810000000000
  O37   O  0.6383175369873175 0.2089868580568158  0.0861528730029692 -0.4793030000000000
  O38   O  0.9819950090818518 0.3099628491857939  0.4616243240603641 -0.4169660000000000
  O39   O  0.8450721623222208 0.3221818547976043  0.0007099757409680 -0.4794690000000000
  O40   O  0.5017093574916442 0.2212224485406911  0.1254736658615503 -0.4167280000000000
  N61   N  0.5704933842652934 0.3592775383041045  0.9109869838099793 -0.3164130000000000
  N62   N  0.5802415419831268 0.4492893671926816  0.8629432500522936 -0.1891140000000000
  N63   N  0.9782248726126109 0.4364552110050371  0.8236583609017725 -0.1922010000000000
  N64   N  0.9137680020982504 0.1721711079167277  0.6768451545718887 -0.3182660000000000
  N65   N  0.9039458684532323 0.0821185057358193  0.7248503287094218 -0.1891000000000000
  N66   N  0.5059841961061414 0.0949519215255632  0.7641571715199420 -0.1932920000000000
  N67   N  0.6639190534871361 0.1091513042192311  0.9267769310968756 -0.3176810000000000
  N68   N  0.6542044999480209 0.1991719316791261  0.4747956528024946 -0.1900040000000000
  N69   N  0.7562265820262983 0.1863092860851334  0.5142984617045877 -0.1929840000000000
  N70   N  0.8203334911647964 0.4220146325406352  0.6610120313444730 -0.3177920000000000
  N71   N  0.8300499611318004 0.3321403399665634  0.6128671794522600 -0.1905160000000000
  N72   N  0.7280188102608962 0.3448360648695923  0.5734882224458059 -0.1919280000000000
  C81   C  0.6334842184851125 0.4020089968001366  0.9145525892707143  0.1569320000000000
  C82   C  0.9752033554405862 0.3825469931695919  0.8539987146484973  0.1569510000000000
  C83   C  0.8507553095960300 0.1294417997061144  0.6732658323882008  0.1565690000000000
  C84   C  0.5090253704783281 0.1488788217443686  0.7338384415224423  0.1597010000000000
  C85   C  0.6009389536201486 0.1518913661773267  0.9230802070074809  0.1565470000000000
  C86   C  0.7592210410899912 0.1324014405131378  0.4839662789942362  0.1596420000000000
  C87   C  0.8833057861595156 0.3794265033509701  0.6645896655544686  0.1572810000000000
  C88   C  0.7250394933185408 0.3986490043556741  0.6038973943213791  0.1577140000000000
  C89   C  0.6747253437705687 0.4881849904834220  0.7728291824711219  0.1605140000000000
  C90   C  0.7495652471635971 0.0373353966861715  0.8311898663041629  0.1635080000000000
  C91   C  0.8095111311486964 0.0430416485109940  0.8150373551317804  0.1626430000000000
  C92   C  0.7347205669461973 0.4938475068316156  0.7567047598823616  0.1622260000000000
  C93   C  0.5594777749234006 0.2384026995210399  0.5651209577579682  0.1612890000000000
  C94   C  0.9841554075693276 0.2863094229073713  1.0059111639893752  0.1624150000000000
  C95   C  0.9239872360409402 0.2927982294699968  0.5218524229686219  0.1616430000000000
  C96   C  0.4993775636477825 0.2449086287337760  0.5811098187620023  0.1617790000000000
  H41   H  0.7165041665773385 0.3965441443966495  0.9528553054106998  0.1303620000000000
  H42   H  0.9048904465587081 0.3608187290788638  0.8355684879907413  0.1238940000000000
  H43   H  0.7677414242110148 0.1349359198601146  0.6349300267847129  0.1298280000000000
  H44   H  0.5793374403239925 0.1706444883959860  0.7522995390387157  0.1236730000000000
  H45   H  0.5178632154394832 0.1464703880945743  0.8845985412533401  0.1300880000000000
  H46   H  0.8295905910967464 0.1106945794112675  0.5025925150028088  0.1231780000000000
  H47   H  0.9663672558569106 0.3849430248724056  0.7030293938208807  0.1307630000000000
  H48   H  0.6547036853843983 0.4202221998224567  0.5854044938762194  0.1233110000000000
 Zn21  Zn  0.6093841014929376 0.2908717565220118  0.9856770681620600  0.7021070000000000
 Zn22  Zn  0.8748461435428799 0.2403845985007170  0.6019398403111931  0.7029310000000000
 Zn23  Zn  0.6248177479369600 0.0409843736723934  0.8517047532797648  0.7026600000000000
 Zn24  Zn  0.8593953257213287 0.4902779074758546  0.7360420120968992  0.7021080000000000
  O41   O  0.5962071909802915 0.4587221964706217  0.7524201829278186 -0.4780350000000000
  O42   O  0.7513858015118913 0.0621369381045639  0.8750255468241646 -0.4177510000000000
  O43   O  0.8879903489377781 0.0725575242686424  0.8354367635055049 -0.4782980000000000
  O44   O  0.7329716902221493 0.4689756425748887  0.7129226864947547 -0.4164690000000000
  O45   O  0.6383175339640079 0.2089899786105062  0.5861540363868446 -0.4790410000000000
  O46   O  0.9819946728921355 0.3099638630014122  0.9616259651775004 -0.4171440000000000
  O47   O  0.8450589068419884 0.3221858534142297  0.5006961349057745 -0.4796760000000000
  O48   O  0.5017102335957749 0.2212226151837302  0.6254734739007811 -0.4165580000000000
  N73   N  0.5704886048130999 0.8592818903922379  0.4109864677779960 -0.3167180000000000
  N74   N  0.5802409157090449 0.9492934073502987  0.3629458512679615 -0.1888830000000000
  N75   N  0.9782284239584864 0.9364506691337915  0.3236595005514099 -0.1920980000000000
  N76   N  0.9137713047358115 0.6721730748164274  0.1768456082176411 -0.3180420000000000
  N77   N  0.9039489568338610 0.5821199321876531  0.2248509141598158 -0.1895200000000000
  N78   N  0.5059865251481921 0.5949494730596937  0.2641572609921671 -0.1933500000000000
  N79   N  0.6639182368151775 0.6091503706935427  0.4267762138360474 -0.3179530000000000
  N80   N  0.6542046242530217 0.6991708644273341 -0.0252034636861473 -0.1897460000000000
  N81   N  0.7562269595717163 0.6863099744516026  0.0142984832306025 -0.1930510000000000
  N82   N  0.8203330318769126 0.9220141604849589  0.1610155637327452 -0.3177090000000000
  N83   N  0.8300518073493554 0.8321414564562649  0.1128712674240400 -0.1905150000000000
  N84   N  0.7280201188726676 0.8448372237136602  0.0734906602679902 -0.1920160000000000
  C97   C  0.6334833927702036 0.9020122758262278  0.4145547551361971  0.1570040000000000
  C98   C  0.9752124629937646 0.8825418571462970  0.3540019381788968  0.1569280000000000
  C99   C  0.8507594479227740 0.6294434674331105  0.1732666458005122  0.1567550000000000
 C100   C  0.5090292653802639 0.6488764636335036  0.2338394249107337  0.1597090000000000
 C101   C  0.6009377104611326 0.6518911410023576  0.4230785854283124  0.1568000000000000
 C102   C  0.7592229063448650 0.6324020203901721 -0.0160331407295092  0.1598420000000000
 C103   C  0.8833082568327845 0.8794269553258758  0.1645946886526578  0.1572000000000000
 C104   C  0.7250388307487988 0.8986500061315074  0.1038991986304658  0.1577610000000000
 C105   C  0.6747303287683067 0.9881762467543547  0.2728399255334052  0.1607480000000000
 C106   C  0.7495617447171816 0.5373413881153991  0.3311860807601393  0.1633130000000000
 C107   C  0.8095135353172254 0.5430461853238774  0.3150371145581869  0.1624950000000000
 C108   C  0.7347018710971747 0.9938501705146290  0.2566991193892482  0.1621120000000000
 C109   C  0.5594815658160304 0.7384026602790958  0.0651237882290762  0.1615550000000000
 C110   C  0.9841539306038832 0.7863096219369805  0.5059079183391325  0.1622810000000000
 C111   C  0.9239972458875630 0.7927955025527416  0.0218610252075329  0.1615030000000000
 C112   C  0.4993820782907865 0.7449101704420922  0.0811127553403875  0.1618340000000000
  H49   H  0.7165048153830372 0.8965438801237178  0.4528581010071977  0.1302880000000000
  H50   H  0.9049021914438192 0.8608112626192136  0.3355719471356388  0.1237870000000000
  H51   H  0.7677468145611487 0.6349378872208072  0.1349305169349584  0.1298780000000000
  H52   H  0.5793425000272144 0.6706412614158866  0.2523009416027719  0.1237960000000000
  H53   H  0.5178628561759092 0.6464695809823479  0.3845992940355157  0.1300840000000000
  H54   H  0.8295932872989491 0.6106965228967597  0.0025919073241875  0.1230440000000000
  H55   H  0.9663712978682470 0.8849451042269063  0.2030348562239674  0.1307150000000000
  H56   H  0.6547029452233747 0.9202250900763677  0.0854061440736066  0.1234060000000000
 Zn25  Zn  0.6093785141672430 0.7908730643053594  0.4856773786473372  0.7019120000000000
 Zn26  Zn  0.8748459457546397 0.7403892193428530  0.1019391762973493  0.7029570000000001
 Zn27  Zn  0.6248180617776712 0.5409830175644443  0.3517056056633289  0.7025000000000000
 Zn28  Zn  0.8593819198626319 0.9902801173184946  0.2360437472670502  0.7023000000000000
  O49   O  0.5962154302730390 0.9587119331573811  0.2524410837647016 -0.4783430000000000
  O50   O  0.7513837836357807 0.5621420266448260  0.3750204862899817 -0.4175640000000000
  O51   O  0.8879895612168900 0.5725603185445962  0.3354373186042508 -0.4780580000000000
  O52   O  0.7329285752211200 0.9690010540604351  0.2128977522951475 -0.4165050000000000
  O53   O  0.6383221255792775 0.7089853883314943  0.0861554258646616 -0.4793670000000000
  O54   O  0.9819983120738938 0.8099635286217926  0.4616253140584659 -0.4168610000000000
  O55   O  0.8450782298686553 0.8221871333078009  0.0007130819034050 -0.4794310000000000
  O56   O  0.5017120000074565 0.7212231990857398  0.1254764974278444 -0.4168260000000000
  N85   N  0.5704930217472934 0.8592783014588989  0.9109881267973320 -0.3165470000000000
  N86   N  0.5802413102009578 0.9492913326429633  0.8629459239238029 -0.1888490000000000
  N87   N  0.9782250577257600 0.9364522296629569  0.8236588941794358 -0.1922900000000000
  N88   N  0.9137720452993726 0.6721745236077425  0.6768462930468275 -0.3181760000000000
  N89   N  0.9039490557786187 0.5821211974638494  0.7248505430239324 -0.1894950000000000
  N90   N  0.5059850426534414 0.5949490237060612  0.7641563159112383 -0.1932530000000000
  N91   N  0.6639196061720065 0.6091495177058628  0.9267773077350635 -0.3177200000000000
  N92   N  0.6542015097409558 0.6991729474792021  0.4747942206296303 -0.1900310000000000
  N93   N  0.7562244603197326 0.6863109483078215  0.5142979027571871 -0.1928920000000000
  N94   N  0.8203304259371211 0.9220130889573774  0.6610152512725677 -0.3177550000000000
  N95   N  0.8300502409368669 0.8321435822801020  0.6128685265583157 -0.1903250000000000
  N96   N  0.7280180585855796 0.8448387914699487  0.5734878206670779 -0.1920830000000000
 C113   C  0.6334845202909091 0.9020097906481679  0.9145545611993340  0.1569620000000000
 C114   C  0.9752084542350278 0.8825423045997212  0.8540003598937962  0.1569440000000000
 C115   C  0.8507589040894250 0.6294452725164664  0.6732666485905046  0.1566800000000000
 C116   C  0.5090271328303695 0.6488751006438790  0.7338376444929681  0.1597810000000000
 C117   C  0.6009390585425622 0.6518891128253750  0.9230808635013491  0.1565230000000000
 C118   C  0.7592205447977395 0.6324025582761357  0.4839663958964039  0.1596910000000000
 C119   C  0.8833051901324921 0.8794278659689023  0.6645930575113833  0.1572710000000000
 C120   C  0.7250371851036598 0.8986491209103186  0.6038984978412348  0.1576940000000000
 C121   C  0.6747300787256174 0.9881780887017150  0.7728395212345911  0.1608030000000000
 C122   C  0.7495560294403717 0.5373475927966395  0.8311808861700808  0.1633490000000000
 C123   C  0.8095144564185560 0.5430502387348537  0.8150362418617922  0.1623930000000000
 C124   C  0.7347031033586311 0.9938511282401928  0.7566998260014552  0.1620640000000000
 C125   C  0.5594814468922923 0.7384041931168094  0.5651241284498724  0.1613140000000000
 C126   C  0.9841593577847143 0.7863098601920477  1.0059136311243675  0.1625430000000000
 C127   C  0.9239894911313484 0.7927978876628849  0.5218528479232795  0.1617370000000000
 C128   C  0.4993823987246421 0.7449092259285544  0.5811138379542854  0.1617380000000000
  H57   H  0.7165047223881239 0.8965428359632908  0.9528563535992332  0.1304300000000000
  H58   H  0.9048991468552734 0.8608106059962977  0.8355724168805663  0.1237430000000000
  H59   H  0.7677451266453305 0.6349406565611497  0.6349303107315043  0.1297640000000000
  H60   H  0.5793399031874805 0.6706388066019587  0.7522993106544873  0.1237900000000000
  H61   H  0.5178633504955299 0.6464672499246680  0.8846017059381398  0.1300310000000000
  H62   H  0.8295900356864248 0.6106959799725963  0.5025915294984314  0.1232670000000000
  H63   H  0.9663671643100594 0.8849465292598843  0.7030330121054889  0.1308050000000000
  H64   H  0.6547022912979376 0.9202227786876951  0.5854071386256444  0.1232430000000000
 Zn29  Zn  0.6093847483708011 0.7908731175882198  0.9856790030659007  0.7021300000000000
 Zn30  Zn  0.8748455303100229 0.7403890936320587  0.6019391851682433  0.7028610000000000
 Zn31  Zn  0.6248225873839257 0.5409854935023112  0.8517080131642721  0.7024890000000000
 Zn32  Zn  0.8593816032866625 0.9902805770025844  0.7360435963681611  0.7022610000000000
  O57   O  0.5962148300722309 0.9587137021646263  0.7524404436974642 -0.4783600000000000
  O58   O  0.7513760499313227 0.5621448236836086  0.8750157812784070 -0.4176070000000000
  O59   O  0.8879929452262965 0.5725640417954539  0.8354386259217546 -0.4780280000000000
  O60   O  0.7329299070040870 0.9689987249262337  0.7128995820197018 -0.4164140000000000
  O61   O  0.6383237131846546 0.7089905288724019  0.5861564431439935 -0.4790600000000000
  O62   O  0.9820005857001681 0.8099621566598305  0.9616291301131452 -0.4172060000000000
  O63   O  0.8450631825711342 0.8221868287003766  0.5006993346460339 -0.4797320000000000
  O64   O  0.5017135208710799 0.7212204220036156  0.6254773073130500 -0.4165850000000000