#squcalf-20_pbesol_DDEC6
_chemical_name_common                    'squcalf-20_pbesol'
_cell_length_a                           18.42094
_cell_length_b                           18.14175
_cell_length_c                           27.57655
_cell_angle_alpha                        89.91858
_cell_angle_beta                         135.61550
_cell_angle_gamma                        89.90765

_symmetry_cell_setting          triclinic
_symmetry_space_group_name_Hall 'P 1'
_symmetry_space_group_name_H-M  'P 1'
_symmetry_Int_Tables_number     1

_symmetry_equiv_pos_as_xyz 'x,y,z'

loop_
_atom_site_label
_atom_site_type_symbol
_atom_site_fract_x
_atom_site_fract_y
_atom_site_fract_z
_atom_site_charge
   N1   N 0.0713377055804804 0.3570727261636428  0.4130920598709296 -0.3045510000000000
   N2   N 0.0805585378508830 0.4476888765244402  0.3635776055459160 -0.1760870000000000
   N3   N 0.4778700025164512 0.4354840787284112  0.3246910044581903 -0.1817430000000000
   N4   N 0.4133222509447516 0.1722398123782718  0.1747269804788809 -0.3055130000000000
   N5   N 0.4036670439366368 0.0819454770998526  0.2242368900624686 -0.1747580000000000
   N6   N 0.0061698959303114 0.0945736338250601  0.2634996668680983 -0.1801580000000000
   N7   N 0.1635899480061428 0.1067496246988985  0.4257982198444322 -0.3045400000000000
   N8   N 0.1533872298122121 0.1982711967298422 -0.0257094504456266 -0.1758310000000000
   N9   N 0.2561434459320967 0.1863687089362415  0.0130246776148526 -0.1811360000000000
  N10   N 0.3213789437850649 0.4223035454326813  0.1631012370963448 -0.3051550000000000
  N11   N 0.3310317676436290 0.3320939058436685  0.1136595884331304 -0.1749940000000000
  N12   N 0.2282417000715588 0.3441577893446557  0.0748183518836194 -0.1802340000000000
   C1   C 0.1348816556349401 0.3996254772583495  0.4161273993085996  0.1451850000000000
   C2   C 0.4745258720726447 0.3811588418507343  0.3556645813419078  0.1472380000000000
   C3   C 0.3495551350751355 0.1301173316716295  0.1717751546529758  0.1442950000000000
   C4   C 0.0095225262174257 0.1490033493617538  0.2326107415180167  0.1468860000000000
   C5   C 0.0999768555293301 0.1494415043999841  0.4227616492582000  0.1430700000000000
   C6   C 0.2594092663644954 0.1321574736913454 -0.0179598419986231  0.1466310000000000
   C7   C 0.3851288008384610 0.3799844683287193  0.1660176392685300  0.1445730000000000
   C8   C 0.2250317700435799 0.3982507527910635  0.1059281673655698  0.1455380000000000
   C9   C 0.1742645826392611 0.4880846623775983  0.2739366341535921  0.1598570000000000
  C10   C 0.2511181829396634 0.0381355732668364  0.3320206468277127  0.1610360000000000
  C11   C 0.3084957266991280 0.0432080277866506  0.3131901700712488  0.1586750000000000
  C12   C 0.2318984232045409 0.4931497475833256  0.2553319371266291  0.1613720000000000
  C13   C 0.0595053222812060 0.2368829653398915  0.0629797003241965  0.1610020000000000
  C14   C 0.4810398085721319 0.2875033425087740  0.5047548982087876  0.1602820000000000
  C15   C 0.4252412052080974 0.2934839081315788  0.0248436456941479  0.1597840000000000
  C16   C 0.0030908970610976 0.2406062986405059  0.0825847491044153  0.1600720000000000
   H1   H 0.2194065636945007 0.3932332733131302  0.4548623490775780  0.1330120000000000
   H2   H 0.4030743303256361 0.3601390744459555  0.3375319813594448  0.1283240000000000
   H3   H 0.2650869798152660 0.1368979276341077  0.1332023695052767  0.1337140000000000
   H4   H 0.0811407612173948 0.1706925126557682  0.2513925276124693  0.1282520000000000
   H5   H 0.0155023153700563 0.1431769548057115  0.3842787185693101  0.1347020000000000
   H6   H 0.3308451767719516 0.1109302047595883  0.0000912593076870  0.1279760000000000
   H7   H 0.4695572944437204 0.3864678428799108  0.2044728988907417  0.1340470000000000
   H8   H 0.1536368675253290 0.4195432058667923  0.0879040832755926  0.1282920000000000
  Zn1  Zn 0.1108608588232586 0.2883018989836604  0.4886330816026322  0.6488030000000000
  Zn2  Zn 0.3744745551465740 0.2412549715388995  0.0996535689572063  0.6499380000000000
  Zn3  Zn 0.1241115551020503 0.0391730550774766  0.3503450975680601  0.6494680000000000
  Zn4  Zn 0.3600280481797899 0.4909708557950773  0.2378921040321409  0.6494120000000000
   O1   O 0.0965618112936467 0.4590560056224490  0.2562695130451421 -0.4628310000000000
   O2   O 0.2535804171974155 0.0626598450675212  0.3766842935909355 -0.4024530000000000
   O3   O 0.3861368241063903 0.0719618477100489  0.3305423806540574 -0.4617040000000000
   O4   O 0.2298785919971155 0.4682876672800181  0.2109663314177922 -0.4020200000000000
   O5   O 0.1369206754605726 0.2089605953912758  0.0793183380737819 -0.4578580000000000
   O6   O 0.4786769283563151 0.3128222893110945  0.4603428224053563 -0.4000590000000000
   O7   O 0.3487177351080082 0.3221854125871237  0.0091988944931839 -0.4574970000000000
   O8   O 0.0053679278073437 0.2153030867543755  0.1269595560228444 -0.4001210000000000
  N13   N 0.0712551881078041 0.3581870534469474  0.9131196171626413 -0.3051620000000000
  N14   N 0.0809909989514521 0.4483490843630539  0.8635545077064953 -0.1757540000000000
  N15   N 0.4783239624858548 0.4355296782778680  0.8246618340510684 -0.1810330000000000
  N16   N 0.4147674630683448 0.1719216052512046  0.6756348735102590 -0.3054190000000000
  N17   N 0.4046668981180768 0.0816041103632889  0.7248983357852540 -0.1759570000000000
  N18   N 0.0062381688400516 0.0945130803181149  0.7632192985962520 -0.1798820000000000
  N19   N 0.1630840452939472 0.1079121593159280  0.9250214075827088 -0.3052440000000000
  N20   N 0.1542966341366829 0.1973197992203721  0.4751075508742483 -0.1738970000000000
  N21   N 0.2570418364718505 0.1849105970120679  0.5140690350033725 -0.1799540000000000
  N22   N 0.3219255148177315 0.4222004492695834  0.6630851007733906 -0.3052980000000000
  N23   N 0.3318635428044350 0.3317037942872866  0.6139808070925675 -0.1759940000000000
  N24   N 0.2290096918727980 0.3438765751924156  0.5749277470436485 -0.1794780000000000
  C17   C 0.1350859117647120 0.4007326979073421  0.9164309518419415  0.1449000000000000
  C18   C 0.4750980511485952 0.3814234606798543  0.8558471148982477  0.1467880000000000
  C19   C 0.3508137492369545 0.1299880751718241  0.6726234201914212  0.1442040000000000
  C20   C 0.0092668052315557 0.1486464731147776  0.7319647946531612  0.1463080000000000
  C21   C 0.0992911460702856 0.1502059569878142  0.9220807255971766  0.1453500000000000
  C22   C 0.2600579819469863 0.1305864081017186  0.4830400231360062  0.1450970000000000
  C23   C 0.3858213846279398 0.3797103374528126  0.6662563670740960  0.1451720000000000
  C24   C 0.2256356930156597 0.3981347187248659  0.6058358194259891  0.1457900000000000
  C25   C 0.1745244508432160 0.4880178456464692  0.7737996570202705  0.1590360000000000
  C26   C 0.2516088069999783 0.0381264472880018  0.8321526577053112  0.1603410000000000
  C27   C 0.3089141732581296 0.0431464614246137  0.8132823280564908  0.1591940000000000
  C28   C 0.2320319856383203 0.4930134170754650  0.7550660624763261  0.1616930000000000
  C29   C 0.0598083183096741 0.2369192223267706  0.5631777072584051  0.1611120000000000
  C30   C 0.4813792708336001 0.2896465774280774  1.0050156065784568  0.1601450000000000
  C31   C 0.4249545491650691 0.2913250011757128  0.5246039639356682  0.1605600000000000
  C32   C 0.0031108590383773 0.2406244660112227  0.5825580567810702  0.1602600000000000
   H9   H 0.2196808983230445 0.3946517652213997  0.9555672304754481  0.1336120000000000
  H10   H 0.4037147087451574 0.3607008433039035  0.8379758144542072  0.1275090000000000
  H11   H 0.2663816457216682 0.1370159340804253  0.6341062937216504  0.1333150000000000
  H12   H 0.0806543937367230 0.1700455772981347  0.7502279066206794  0.1283040000000000
  H13   H 0.0148890203716776 0.1435450619446053  0.8837651962228008  0.1344540000000000
  H14   H 0.3314016798304465 0.1089836497296723  0.5011808656231290  0.1282690000000000
  H15   H 0.4702612723678495 0.3861736268930898  0.7048120260010898  0.1334180000000000
  H16   H 0.1541269081867187 0.4195448836704400  0.5875774719755210  0.1281050000000000
  Zn5  Zn 0.1100679564282250 0.2891494206033844  0.9881411083548988  0.6502790000000001
  Zn6  Zn 0.3753766096170681 0.2406866478477618  0.6001870517684923  0.6499740000000001
  Zn7  Zn 0.1243439827910107 0.0395539004877145  0.8501699453029806  0.6494320000000000
  Zn8  Zn 0.3603112538710115 0.4909323337627249  0.7378387815707197  0.6494770000000000
   O9   O 0.0968765607079860 0.4591038846410525  0.7562993615348993 -0.4624440000000000
  O10   O 0.2540681405043849 0.0627815365709979  0.8767773806745622 -0.4016850000000000
  O11   O 0.3865473474237087 0.0719431181303841  0.8306614288216578 -0.4618230000000000
  O12   O 0.2299989319710531 0.4681831321787195  0.7106874650751757 -0.4020300000000000
  O13   O 0.1373531272336784 0.2090244498655813  0.5796307121065941 -0.4581330000000000
  O14   O 0.4798066272623126 0.3155692522778846  0.9611285071084903 -0.4004910000000000
  O15   O 0.3477851339637588 0.3193382369527523  0.5085684559053569 -0.4576650000000000
  O16   O 0.0052098192420260 0.2152848054697571  0.6268414992335015 -0.4007560000000000
  N25   N 0.0711225588318417 0.8574480854703557  0.4127822814425282 -0.3039680000000000
  N26   N 0.0808022775527904 0.9476549274267992  0.3632258159220627 -0.1752560000000000
  N27   N 0.4781604768742384 0.9356765859842184  0.3247926151800662 -0.1816350000000000
  N28   N 0.4134005210716924 0.6721053252452216  0.1748914823428783 -0.3057820000000000
  N29   N 0.4035036160723213 0.5818549137707391  0.2243136098494015 -0.1752410000000000
  N30   N 0.0056053735685342 0.5941685783488968  0.2633807587033737 -0.1794200000000000
  N31   N 0.1627107270940801 0.6072055429218335  0.4254552120367330 -0.3055910000000000
  N32   N 0.1537920922979824 0.6984047349002721 -0.0255568746628765 -0.1762970000000000
  N33   N 0.2565123851483718 0.6863253360808705  0.0131799782575781 -0.1795880000000000
  N34   N 0.3217863015216577 0.9223078026850923  0.1632908852389701 -0.3056970000000000
  N35   N 0.3314591594609492 0.8319886732495512  0.1139364071213948 -0.1746470000000000
  N36   N 0.2286631602668698 0.8441240107933388  0.0750421518645861 -0.1803710000000000
  C33   C 0.1348989949322824 0.8997824365790056  0.4159081656917061  0.1443300000000000
  C34   C 0.4749443683714256 0.8816836153303672  0.3560659322341894  0.1478400000000000
  C35   C 0.3494999481246555 0.6298858490602545  0.1717429014308343  0.1453260000000000
  C36   C 0.0089156471377434 0.6482595615136371  0.2322292935147593  0.1471320000000000
  C37   C 0.0991150566317741 0.6500856059901716  0.4223105140770035  0.1451740000000000
  C38   C 0.2596263231979056 0.6320500423660161 -0.0178350920816573  0.1449230000000000
  C39   C 0.3855483954001453 0.8799102818279957  0.1662741145331052  0.1450650000000000
  C40   C 0.2254406167481942 0.8982791404529916  0.1060994130881177  0.1459950000000000
  C41   C 0.1742470778843140 0.9881151734607126  0.2737501574655814  0.1590810000000000
  C42   C 0.2509815137793119 0.5381354944069636  0.3322164997300567  0.1600680000000000
  C43   C 0.3085936328293462 0.5432134831865729  0.3135214922998953  0.1583060000000000
  C44   C 0.2317754497825455 0.9931264476740316  0.2550517143819933  0.1611550000000000
  C45   C 0.0596422995225854 0.7368689036520961  0.0630887263757835  0.1608580000000000
  C46   C 0.4812609402316514 0.7875311536125851  0.5049379264341706  0.1603000000000000
  C47   C 0.4254342415281997 0.7934389102313516  0.0250249868444668  0.1599740000000000
  C48   C 0.0030928787949318 0.7405921504856765  0.0825952372257892  0.1598350000000000
  H17   H 0.2194344387303238 0.8933836411503705  0.4548258933519242  0.1328030000000000
  H18   H 0.4035559233782569 0.8609239629003502  0.3381724342815874  0.1274400000000000
  H19   H 0.2649962420314670 0.6365328690598242  0.1329557632051069  0.1335800000000000
  H20   H 0.0804700668119375 0.6696991257399755  0.2507651802261729  0.1275390000000000
  H21   H 0.0146324793840502 0.6439210732098772  0.3837685123163170  0.1338750000000000
  H22   H 0.3309760050975655 0.6106792001813294  0.0001734415149345  0.1284780000000000
  H23   H 0.4699831697496877 0.8863470516211724  0.2047459277096101  0.1333920000000000
  H24   H 0.1540413394418456 0.9196418804959058  0.0880306003321431  0.1283590000000000
  Zn9  Zn 0.1104645079605908 0.7891688660772982  0.4884388968200096  0.6501790000000000
 Zn10  Zn 0.3747722293612672 0.7411023267766708  0.0998878745051244  0.6499750000000000
 Zn11  Zn 0.1235970108095616 0.5392017937487452  0.3504598249055337  0.6497060000000000
 Zn12  Zn 0.3602230117100399 0.9911476173017374  0.2379527365438529  0.6491410000000000
  O17   O 0.0965813750839489 0.9591690673148806  0.2562010549718789 -0.4620320000000000
  O18   O 0.2531523869984636 0.5626675392616910  0.3767465204565432 -0.4023900000000000
  O19   O 0.3863337322632456 0.5719657934331729  0.3310052373561497 -0.4617870000000000
  O20   O 0.2298513654240023 0.9682731229135251  0.2107354554162578 -0.4013750000000000
  O21   O 0.1370867223076879 0.7089227501368192  0.0794783502857918 -0.4585480000000000
  O22   O 0.4789114074693293 0.8129131512132498  0.4605432565009683 -0.4003650000000000
  O23   O 0.3488435545333952 0.8220980866587678  0.0093005597936078 -0.4571520000000000
  O24   O 0.0053184135280888 0.7152373188496871  0.1269407314794018 -0.4000860000000000
  N37   N 0.0715504480005771 0.8583325708638321  0.9133573184443841 -0.3056120000000000
  N38   N 0.0810602189070595 0.9484909035922993  0.8636763964231319 -0.1767910000000000
  N39   N 0.4779828106055803 0.9352241224411952  0.8247961512019986 -0.1817380000000000
  N40   N 0.4135603834557668 0.6723061369709764  0.6749914486637658 -0.3059790000000000
  N41   N 0.4037402801727016 0.5818589386419795  0.7243032204977347 -0.1757840000000000
  N42   N 0.0063850033498644 0.5944983542277111  0.7632352229762412 -0.1797530000000000
  N43   N 0.1632235170441323 0.6079303975528334  0.9251271968426759 -0.3045220000000000
  N44   N 0.1534581701802397 0.6980232800207701  0.4746086458796456 -0.1755100000000000
  N45   N 0.2561894905965600 0.6854506447473555  0.5136318360036208 -0.1793020000000000
  N46   N 0.3219658840702195 0.9223115424283124  0.6632075044840012 -0.3055490000000000
  N47   N 0.3316627079503282 0.8320739977005176  0.6138109909525917 -0.1747520000000000
  N48   N 0.2288581881375724 0.8443797955669067  0.5747753586204487 -0.1803800000000000
  C49   C 0.1352674347901258 0.9007958626799136  0.9164990136596651  0.1456640000000000
  C50   C 0.4745902057954072 0.8808184504598944  0.8556799530263125  0.1471070000000000
  C51   C 0.3497136386196709 0.6300946159138081  0.6718906318314062  0.1450220000000000
  C52   C 0.0095259079444644 0.6488599130523929  0.7321991623977537  0.1461430000000000
  C53   C 0.0995547864349658 0.6503831766594481  0.9222058351223836  0.1450210000000000
  C54   C 0.2591956015902728 0.6309954383729333  0.4827006829107701  0.1452410000000000
  C55   C 0.3857677125427185 0.8798273026848351  0.6662747889546299  0.1446650000000000
  C56   C 0.2256017551244305 0.8984870805980284  0.6058461093909544  0.1450520000000000
  C57   C 0.1747171040611013 0.9880690352340671  0.7739441951286671  0.1590480000000000
  C58   C 0.2513985787591982 0.5380767158984050  0.8320255442116096  0.1608180000000000
  C59   C 0.3087883135269786 0.5431006546635466  0.8132151027887935  0.1587890000000000
  C60   C 0.2321016226882753 0.9930670344043532  0.7551284762476056  0.1611550000000000
  C61   C 0.0591760628064360 0.7378369373715632  0.5627352962836137  0.1585310000000000
  C62   C 0.4815834225986542 0.7896429399803599  1.0052096522398766  0.1608580000000000
  C63   C 0.4250228983783699 0.7913368826968254  0.5246526112843072  0.1605030000000000
  C64   C 0.0029830756913890 0.7415205190576528  0.5824894972726964  0.1612620000000000
  H25   H 0.2198445491456113 0.8946138471770195  0.9554937196367159  0.1331580000000000
  H26   H 0.4031337562503711 0.8600057897563961  0.8376546963043416  0.1279880000000000
  H27   H 0.2652269387393369 0.6368115746085757  0.6332014451831780  0.1330770000000000
  H28   H 0.0810189716290853 0.6705265564463274  0.7507765719230151  0.1284640000000000
  H29   H 0.0151359186264114 0.6438623714774844  0.8838966910143692  0.1345250000000000
  H30   H 0.3305498407074219 0.6092838231406938  0.5009167088605978  0.1284200000000000
  H31   H 0.4702454749442835 0.8860988209622157  0.7048693585187021  0.1338490000000000
  H32   H 0.1541292240654760 0.9199396267782488  0.5876141601256479  0.1282210000000000
 Zn13  Zn 0.1104431133377028 0.7892166025395063  0.9883535428049427  0.6499040000000000
 Zn14  Zn 0.3747440470942966 0.7410577125989066  0.5997428674207144  0.6494400000000000
 Zn15  Zn 0.1243561845828104 0.5395700913909497  0.8502916931526010  0.6497740000000000
 Zn16  Zn 0.3604670919440020 0.9908296753084135  0.7380311360330493  0.6499860000000000
  O25   O 0.0971106491392711 0.9591598950970085  0.7565080068644069 -0.4618070000000000
  O26   O 0.2538904529190547 0.5627380971925544  0.8766647834552042 -0.4020910000000000
  O27   O 0.3864405874292535 0.5719001224222383  0.8306268647790672 -0.4616260000000000
  O28   O 0.2299557238819654 0.9682439113120985  0.7106990567637526 -0.4015860000000000
  O29   O 0.1356832377820596 0.7091736049699167  0.5783062141473244 -0.4562190000000000
  O30   O 0.4800198110758437 0.8155584509313631  0.9613339906147438 -0.4009370000000000
  O31   O 0.3478001762175058 0.8193612324473594  0.5085606728460729 -0.4577040000000000
  O32   O 0.0047440142677474 0.7153282091757208  0.6263970129681451 -0.4014440000000000
  N49   N 0.5708015093719233 0.3564752992525391  0.4128487186188848 -0.3060620000000000
  N50   N 0.5807005744988530 0.4469849105940030  0.3636048155890378 -0.1763220000000000
  N51   N 0.9777899231727598 0.4355617261242303  0.3244975273459596 -0.1810320000000000
  N52   N 0.9131581758708498 0.1727430215241960  0.1746940773055203 -0.3054330000000000
  N53   N 0.9032777366321261 0.0819872906901732  0.2237475752646674 -0.1754650000000000
  N54   N 0.5064482475374840 0.0935465245407659  0.2631238502397290 -0.1810970000000000
  N55   N 0.6630656951346596 0.1062116882772332  0.4246554572845930 -0.3057950000000000
  N56   N 0.6534548867714899 0.1970066122049339 -0.0257328702028183 -0.1738890000000000
  N57   N 0.7562728503166944 0.1848130277978439  0.0132765600619964 -0.1812150000000000
  N58   N 0.8212318926677401 0.4220764672871637  0.1626387892128502 -0.3056730000000000
  N59   N 0.8310010657777976 0.3319913624280987  0.1131819938782439 -0.1753060000000000
  N60   N 0.7282220732631918 0.3438292031871436  0.0744410912217061 -0.1800150000000000
  C65   C 0.6346566599511655 0.3986227176374579  0.4159143070014792  0.1460200000000000
  C66   C 0.9748457254769828 0.3811986483801598  0.3556436651260079  0.1477230000000000
  C67   C 0.8492505530240998 0.1298926416976065  0.1710803454645282  0.1449560000000000
  C68   C 0.5096709103983040 0.1477216654807505  0.2319983857044960  0.1464720000000000
  C69   C 0.5992226027467866 0.1486353918420558  0.4215772239527170  0.1442730000000000
  C70   C 0.7595974024133108 0.1303113709274925 -0.0174779448625215  0.1458210000000000
  C71   C 0.8850578467463514 0.3799185011454939  0.1655069129703990  0.1441370000000000
  C72   C 0.7249128172575710 0.3978686933934757  0.1055317835209458  0.1454880000000000
  C73   C 0.6755370228462236 0.4879716383940105  0.2745631833487972  0.1598290000000000
  C74   C 0.7528106725555578 0.0380130969635228  0.3324286983813732  0.1606130000000000
  C75   C 0.8102973481807217 0.0431786581615755  0.3136809313154470  0.1602180000000000
  C76   C 0.7325478688178362 0.4930207178366201  0.2555047969785832  0.1598540000000000
  C77   C 0.5577361442955697 0.2377958722338085  0.0618034196735520  0.1602210000000000
  C78   C 0.9821952862346179 0.2874934369696895  0.5053293390998541  0.1604550000000000
  C79   C 0.9255239913425670 0.2912037391694363  0.0248600003311477  0.1595170000000000
  C80   C 0.5017917637983094 0.2415976332439881  0.0817078814408745  0.1605400000000000
  H33   H 0.7191164647255991 0.3917993468898284  0.4545048333092385  0.1329190000000000
  H34   H 0.9034907150817055 0.3597532522922566  0.3373999237627919  0.1274130000000000
  H35   H 0.7646373091560418 0.1359081359990476  0.1318287707661144  0.1334470000000000
  H36   H 0.5810885652293228 0.1687498678000774  0.2500912335039847  0.1279070000000000
  H37   H 0.5147834210855127 0.1421840725640983  0.3830954860929900  0.1337630000000000
  H38   H 0.8310380843514187 0.1087645028802981  0.0007693741412665  0.1281510000000000
  H39   H 0.9694572792736593 0.3865939281774156  0.2038770557840627  0.1339980000000000
  H40   H 0.6534754024941922 0.4190525812942700  0.0875056131532968  0.1280370000000000
 Zn17  Zn 0.6096959266595134 0.2872675754077245  0.4880097558376660  0.6501470000000000
 Zn18  Zn 0.8742664438182662 0.2410642849537263  0.0990999807926273  0.6498510000000000
 Zn19  Zn 0.6245523485515388 0.0376716757306032  0.3496592952321620  0.6498840000000000
 Zn20  Zn 0.8597190572348617 0.4906129459974383  0.2373284580440546  0.6502790000000001
  O33   O 0.5981698094601104 0.4590864992496138  0.2575349816955375 -0.4620160000000000
  O34   O 0.7546168865619892 0.0625634160827793  0.3767574936733352 -0.4013440000000000
  O35   O 0.8879948003296997 0.0721966772236247  0.3313959052615693 -0.4619960000000000
  O36   O 0.7298812661067965 0.4682203526361514  0.2108276144335292 -0.4012560000000000
  O37   O 0.6342153818356396 0.2092170910995076  0.0772117439197726 -0.4577800000000000
  O38   O 0.9799291574032526 0.3129882971625596  0.4609987948958686 -0.4005480000000000
  O39   O 0.8482607917704201 0.3191336228397386  0.0088199121429606 -0.4569430000000000
  O40   O 0.5040552252844542 0.2155182882579345  0.1258980474035574 -0.4015720000000000
  N61   N 0.5713697969639850 0.3565549665469856  0.9128612454520598 -0.3057920000000000
  N62   N 0.5811067131422585 0.4467208218624663  0.8632689734609761 -0.1762050000000000
  N63   N 0.9781234237592797 0.4359087029425636  0.8239833404003905 -0.1791910000000000
  N64   N 0.9127966306211529 0.1725130803066209  0.6743042068180081 -0.3049890000000000
  N65   N 0.9034653870453369 0.0822737616704914  0.7240139699262406 -0.1763190000000000
  N66   N 0.5075093050956139 0.0928525129091447  0.7637478348073314 -0.1815510000000000
  N67   N 0.6632796196957786 0.1061438608363620  0.9253968531786992 -0.3056560000000000
  N68   N 0.6532278598433379 0.1966588335174919  0.4738325030078744 -0.1748150000000000
  N69   N 0.7560384987207626 0.1846059057500226  0.5127492016126521 -0.1813150000000000
  N70   N 0.8211496447683097 0.4220691715597330  0.6618675285782701 -0.3048010000000000
  N71   N 0.8305356623539051 0.3316910612448581  0.6124614181333701 -0.1749560000000000
  N72   N 0.7278570972588774 0.3433494275928324  0.5740599187336032 -0.1809990000000000
  C81   C 0.6351229072672132 0.3983775918834380  0.9156037164930297  0.1451210000000000
  C82   C 0.9748441101569110 0.3818343762418270  0.8551658867110525  0.1455740000000000
  C83   C 0.8491778655625138 0.1300612498769686  0.6712504864362764  0.1450470000000000
  C84   C 0.5109871229554234 0.1470627562840701  0.7327623896365381  0.1482550000000000
  C85   C 0.5994274599576626 0.1488174713502719  0.9221576474056942  0.1437300000000000
  C86   C 0.7593617312504792 0.1303692138775345  0.4818013706419437  0.1454690000000000
  C87   C 0.8847739559871167 0.3798942379505042  0.6645565196926121  0.1445630000000000
  C88   C 0.7247721304219918 0.3975711836986813  0.6051216041059855  0.1467680000000000
  C89   C 0.6760947103740033 0.4879110295355926  0.7741965025216074  0.1572550000000000
  C90   C 0.7527847894633073 0.0360357974021823  0.8330307248993035  0.1618590000000000
  C91   C 0.8099158508108302 0.0422411884590802  0.8140438013914063  0.1579340000000000
  C92   C 0.7334375124964398 0.4930814318874207  0.7553338843193992  0.1610490000000000
  C93   C 0.5586924416569954 0.2368864173290868  0.5624390327676893  0.1605800000000000
  C94   C 0.9817952483256299 0.2875246266793244  1.0051945834317644  0.1598250000000000
  C95   C 0.9255756066646796 0.2911915118635883  0.5247398549085459  0.1597790000000000
  C96   C 0.5027616856430563 0.2407094166227149  0.5823588527035745  0.1595700000000000
  H41   H 0.7195404996774333 0.3913284260472121  0.9539856909744382  0.1327800000000000
  H42   H 0.9033080219794225 0.3602779991932301  0.8365933225975929  0.1285410000000000
  H43   H 0.7646214688386895 0.1363159420862090  0.6323724102292959  0.1331570000000000
  H44   H 0.5825144680330027 0.1678554458825680  0.7508821590319515  0.1278330000000000
  H45   H 0.5149886651301173 0.1423497998537373  0.8836885426909370  0.1341300000000000
  H46   H 0.8308258731254548 0.1090718640820784  0.4999368416064084  0.1279690000000000
  H47   H 0.9691297716266318 0.3867330441786082  0.7026527678678687  0.1339770000000000
  H48   H 0.6534932024716525 0.4186718639082520  0.5873643765699477  0.1279660000000000
 Zn21  Zn 0.6100577417144861 0.2878697214326190  0.9882980254003031  0.6496550000000000
 Zn22  Zn 0.8738665175858810 0.2406545243635835  0.5986874215329977  0.6492599999999999
 Zn23  Zn 0.6250329669202951 0.0374247539792188  0.8507800638602567  0.6495860000000000
 Zn24  Zn 0.8603275311973149 0.4905268149597284  0.7365797045740937  0.6493450000000000
  O41   O 0.5986718670144278 0.4589993133475777  0.7570968526887190 -0.4625530000000000
  O42   O 0.7550916143817005 0.0600482319607484  0.8777482436860784 -0.4025500000000000
  O43   O 0.8871126543494030 0.0719374865032039  0.8314504742014649 -0.4628080000000000
  O44   O 0.7309802505170905 0.4683558124731557  0.7107103413512470 -0.4032300000000000
  O45   O 0.6358225626436206 0.2089428335437565  0.5783347587922572 -0.4576260000000000
  O46   O 0.9792177418866795 0.3131077568724085  0.9607350216774719 -0.4003550000000000
  O47   O 0.8481208833957165 0.3191156635775796  0.5084264884387363 -0.4574250000000000
  O48   O 0.5056338492587557 0.2153951166389488  0.6270203091578125 -0.4003080000000000
  N73   N 0.5712554409955511 0.8569840983093213  0.4132042098643058 -0.3065440000000000
  N74   N 0.5809416540945304 0.9469399856306051  0.3634452007527942 -0.1760200000000000
  N75   N 0.9779674081508355 0.9356064926923537  0.3239704996008658 -0.1801130000000000
  N76   N 0.9125473538855264 0.6720177103360481  0.1743379621032773 -0.3053170000000000
  N77   N 0.9027451357687252 0.5818220331435154  0.2238531095811858 -0.1767540000000000
  N78   N 0.5063449542570924 0.5936644519597856  0.2634817061483879 -0.1808540000000000
  N79   N 0.6631346664433905 0.6064851666934190  0.4250832848799658 -0.3056320000000000
  N80   N 0.6534546914901745 0.6965509807250503 -0.0259546385456931 -0.1745850000000000
  N81   N 0.7562643827630821 0.6845743267411539  0.0129105893244561 -0.1818690000000000
  N82   N 0.8213695035651389 0.9220781516504525  0.1619847004478155 -0.3050790000000000
  N83   N 0.8308903587497534 0.8314656783827695  0.1128225659229067 -0.1747290000000000
  N84   N 0.7281684696513359 0.8434217904007774  0.0741322856560352 -0.1800360000000000
  C97   C 0.6350100724006011 0.8987878447147261  0.4159298565533888  0.1451030000000000
  C98   C 0.9747355777294774 0.8814971256189978  0.3551542425293943  0.1469930000000000
  C99   C 0.8486824782146086 0.6295183252777546  0.1710212202082148  0.1456920000000000
 C100   C 0.5097156858326450 0.6477963412219461  0.2324011975559517  0.1464870000000000
 C101   C 0.5993693318061466 0.6487312250388485  0.4222116000695799  0.1437800000000000
 C102   C 0.7595975853610007 0.6304004043871644 -0.0180799887724030  0.1457660000000000
 C103   C 0.8850818053815815 0.8796323371619624  0.1649375163562131  0.1440990000000000
 C104   C 0.7249873983483465 0.8977878465081253  0.1050436602575597  0.1463140000000000
 C105   C 0.6762669421929813 0.9878724290350570  0.2743979919182262  0.1578250000000000
 C106   C 0.7522973578998979 0.5380704750057601  0.3326236325354362  0.1602000000000000
 C107   C 0.8095145362477847 0.5431645082461386  0.3136566616470594  0.1601950000000000
 C108   C 0.7334654063944872 0.9930141566214985  0.2554377217875664  0.1610140000000000
 C109   C 0.5577915498684153 0.7376624368932186  0.0618646136740292  0.1592090000000000
 C110   C 0.9826953084711951 0.7897147558803889  0.5059049534183232  0.1599850000000000
 C111   C 0.9255691172698801 0.7912032242559424  0.0248364090876131  0.1598600000000000
 C112   C 0.5019385724899196 0.7414628120239517  0.0818344497267397  0.1607290000000000
  H49   H 0.7194799387963281 0.8919085687858596  0.4544394195568022  0.1330560000000000
  H50   H 0.9032517975505469 0.8602382282149814  0.3368306422896403  0.1276240000000000
  H51   H 0.7640912466906031 0.6356462812456118  0.1318773997555124  0.1328490000000000
  H52   H 0.5812849228531695 0.6688986344343961  0.2507586002036640  0.1277420000000000
  H53   H 0.5149995333006373 0.6419185233970408  0.3840670574817376  0.1341930000000000
  H54   H 0.8310447221410922 0.6091832983108719 -0.0000170376694579  0.1276600000000000
  H55   H 0.9694766991384559 0.8862545245733162  0.2032157482815586  0.1338990000000000
  H56   H 0.6536262755514501 0.9191699976742259  0.0870120385665831  0.1283100000000000
 Zn25  Zn 0.6099961095378281 0.7877910146727836  0.4882977639828581  0.6495170000000000
 Zn26  Zn 0.8741270086726530 0.7404707202514199  0.0989659633202699  0.6490990000000000
 Zn27  Zn 0.6243835982100572 0.5378258496514778  0.3500686857227703  0.6502920000000000
 Zn28  Zn 0.8602584839037373 0.9904393109657579  0.2366519824136083  0.6495120000000000
  O49   O 0.5989170598330833 0.9589702775955331  0.2574102399763171 -0.4623580000000000
  O50   O 0.7543550906878888 0.5625810154525412  0.3770875221682740 -0.4021410000000000
  O51   O 0.8870602320036370 0.5720453367995042  0.3310105914454144 -0.4618890000000000
  O52   O 0.7309025722065263 0.9682544351142836  0.2107766703015010 -0.4031990000000000
  O53   O 0.6340479367163288 0.7089703336402625  0.0770504088428224 -0.4570610000000000
  O54   O 0.9806716354002639 0.8157657324168049  0.4618352670173983 -0.4009260000000000
  O55   O 0.8482136452327599 0.8191517903134070  0.0086345755567680 -0.4572760000000000
  O56   O 0.5041687731229668 0.7152766890568497  0.1259797384357285 -0.4018560000000000
  N85   N 0.5708118479532858 0.8558124787449367  0.9126238153941935 -0.3060520000000000
  N86   N 0.5807947026172740 0.9464523228678219  0.8635418068294657 -0.1753760000000000
  N87   N 0.9782404455154644 0.9362018738131637  0.8243290707155372 -0.1793290000000000
  N88   N 0.9130728001371348 0.6726007106122355  0.6743965380543588 -0.3044040000000000
  N89   N 0.9035697733751449 0.5819651931970919  0.7237198700690074 -0.1762320000000000
  N90   N 0.5065482895005466 0.5935291456267742  0.7633096719536613 -0.1809390000000000
  N91   N 0.6633092024152112 0.6062045024076360  0.9247998983462639 -0.3061870000000000
  N92   N 0.6534148770399041 0.6970826022455078  0.4742061544925038 -0.1746830000000000
  N93   N 0.7561668380482095 0.6854552136712985  0.5127357488974654 -0.1825880000000000
  N94   N 0.8212213745690121 0.9224600965875677  0.6622899376464818 -0.3056850000000000
  N95   N 0.8307281186099948 0.8318910615048748  0.6130710202465469 -0.1743470000000000
  N96   N 0.7280182526762046 0.8436435098707519  0.5745459783705178 -0.1800840000000000
 C113   C 0.6346970719117881 0.8978318813795892  0.9156439264517379  0.1447510000000000
 C114   C 0.9751010106594266 0.8821174814104600  0.8555724003636340  0.1467850000000000
 C115   C 0.8493547591546526 0.6298330122203750  0.6710251266441228  0.1453870000000000
 C116   C 0.5098723919727598 0.6477968583059865  0.7323020481568726  0.1469820000000000
 C117   C 0.5994658300417017 0.6485491727293236  0.9217787696925464  0.1449290000000000
 C118   C 0.7594105998089258 0.6310966013707359  0.4818306715984666  0.1465660000000000
 C119   C 0.8848979454844446 0.8801639002082919  0.6651118054411347  0.1444020000000000
 C120   C 0.7248678128873338 0.8979805554816245  0.6055006671724290  0.1459210000000000
 C121   C 0.6762993900224192 0.9859851688189164  0.7747283768485301  0.1574410000000000
 C122   C 0.7526634500155321 0.5379956433030803  0.8322956575580051  0.1609070000000000
 C123   C 0.8102505364811409 0.5431931787078608  0.8136282099018122  0.1600620000000000
 C124   C 0.7333472255116161 0.9921908681077858  0.7557044090255329  0.1615910000000000
 C125   C 0.5588628350557486 0.7368826044233171  0.5626550194538877  0.1602830000000000
 C126   C 0.9820233449663585 0.7875246342507020  1.0053017065234646  0.1603680000000000
 C127   C 0.9265289207372237 0.7933677994935990  0.5256628073850378  0.1609770000000000
 C128   C 0.5026514282706218 0.7406834858997619  0.5823866710920533  0.1602510000000000
  H57   H 0.7191158839671411 0.8907443502794746  0.9540428825927281  0.1334660000000000
  H58   H 0.9036330836744002 0.8606504487392324  0.8371541312095695  0.1281070000000000
  H59   H 0.7647729738680151 0.6359470972351360  0.6320065760089690  0.1332060000000000
  H60   H 0.5813571321658354 0.6688728855886565  0.7505187716675398  0.1281200000000000
  H61   H 0.5150340248377853 0.6420550614316658  0.8833080195553107  0.1336340000000000
  H62   H 0.8307813052897031 0.6100034960705865  0.4997158344106755  0.1275000000000000
  H63   H 0.9692538542906877 0.8869795708760574  0.7032523253879095  0.1336720000000000
  H64   H 0.6535623400250185 0.9191905587046637  0.5876452958828082  0.1281550000000000
 Zn29  Zn 0.6099128281504534 0.7872559711266665  0.9882056676126278  0.6501740000000000
 Zn30  Zn 0.8741259096668361 0.7411251778931547  0.5989968507726506  0.6496510000000000
 Zn31  Zn 0.6247105609265403 0.5376915545844824  0.8498015774987223  0.6496940000000000
 Zn32  Zn 0.8601780939390270 0.9909439492468444  0.7370666919237104  0.6501370000000000
  O57   O 0.5990889989508131 0.9563341589285981  0.7573587822852437 -0.4629020000000000
  O58   O 0.7545431504035200 0.5625129707519215  0.8766697978582075 -0.4014990000000000
  O59   O 0.8880282210478925 0.5722005215333259  0.8314463940275261 -0.4621160000000000
  O60   O 0.7307092302350674 0.9682245113285770  0.7108229042137960 -0.4029400000000000
  O61   O 0.6361167713345838 0.7089313059870689  0.5787377241454097 -0.4579450000000000
  O62   O 0.9795738051698631 0.8131251164384238  0.9609086358263682 -0.4003350000000000
  O63   O 0.8498266054199574 0.8218386264506758  0.5099917729394491 -0.4575900000000000
  O64   O 0.5051554949081224 0.7153554654156035  0.6268672552226050 -0.4003520000000000